216
#
Ar 0.2443 0.133474 -0.321116 
Ar 1.90935 3.05223 1.04665 
Ar 3.69044 -0.411964 0.682313 
Ar 5.35492 2.80443 0.21273 
Ar 7.99508 -0.529819 0.512968 
Ar 9.0818 3.12189 0.0696401 
Ar 11.529 -1.08265 -1.30119 
Ar 12.8065 4.16871 -0.158345 
Ar 14.3469 -0.00581258 1.38136 
Ar 16.356 4.37784 -0.183541 
Ar 17.9385 -0.282753 -0.255585 
Ar 21.1237 4.80215 0.322903 
Ar 21.7434 0.0624536 0.654309 
Ar 24.853 3.51743 1.66532 
Ar 25.5291 0.297938 0.683227 
Ar 27.9874 3.86685 -1.09872 
Ar 29.6057 0.15637 0.233536 
Ar 31.7488 3.5244 -0.416227 
Ar -0.337753 6.80233 1.11823 
Ar 2.10769 11.7815 -0.287559 
Ar 3.40781 6.50845 0.543308 
Ar 5.38623 10.4176 -0.130777 
Ar 7.08308 6.13059 -0.562375 
Ar 8.47326 11.9087 -0.41289 
Ar 9.93373 8.18791 0.619281 
Ar 12.7153 11.2149 -0.0641976 
Ar 14.016 7.66033 -0.928875 
Ar 16.3435 10.5105 -0.261615 
Ar 18.7093 7.58646 0.333498 
Ar 20.0225 12.025 0.500588 
Ar 22.3162 8.50973 -0.399653 
Ar 23.8118 11.8123 -0.827077 
Ar 26.0472 6.85414 1.10378 
Ar 27.3362 11.8424 -0.424972 
Ar 29.1178 8.43647 -0.0923679 
Ar 31.1336 11.5333 -0.396835 
Ar -0.112486 15.2617 -0.196265 
Ar 1.59621 18.303 -0.228498 
Ar 3.61234 15.0072 -0.650073 
Ar 6.01897 18.3159 0.4784 
Ar 7.39057 15.2013 -0.919679 
Ar 9.49445 17.9741 0.327879 
Ar 10.6974 14.4851 0.229817 
Ar 12.9767 17.1881 1.28224 
Ar 15.496 13.7922 0.185324 
Ar 16.423 18.2383 -0.947405 
Ar 18.6558 15.5362 -0.306786 
Ar 20.2173 18.9293 0.468187 
Ar 22.1518 15.2402 -0.250625 
Ar 23.8209 18.6579 0.856654 
Ar 25.7821 15.1294 -0.0380855 
Ar 26.7429 18.7058 -0.781392 
Ar 29.1994 14.6982 1.3071 
Ar 30.5103 18.1282 1.25566 
Ar -0.199704 22.594 -1.15201 
Ar 1.73122 25.7236 -1.00962 
Ar 3.30951 21.8527 -0.357044 
Ar 5.40724 25.5351 0.868925 
Ar 7.05678 21.7436 0.0245447 
Ar 8.98016 25.378 0.123153 
Ar 10.672 21.7065 0.259176 
Ar 12.2592 25.4073 0.851856 
Ar 14.1174 20.7434 -0.278987 
Ar 16.1662 25.3172 -0.605365 
Ar 18.1387 21.758 -0.240896 
Ar 20.3767 25.5457 -0.521984 
Ar 21.7424 22.3888 0.43428 
Ar 24.0656 26.3832 1.08007 
Ar 25.5635 23.1607 0.1312 
Ar 27.6586 26.2343 -0.0708994 
Ar 29.2005 22.8103 0.526583 
Ar 31.0353 26.225 -0.673678 
Ar 2.0185 0.567871 3.94018 
Ar 3.3687 4.21427 4.26022 
Ar 6.04961 0.914606 3.68878 
Ar 6.82882 4.77941 3.43356 
Ar 9.57488 1.79076 3.34309 
Ar 10.2038 5.5199 3.06664 
Ar 13.2201 2.87939 3.3218 
Ar 14.9093 6.14059 2.83949 
Ar 17.0556 2.07269 2.99594 
Ar 18.6576 5.41456 3.67906 
Ar 20.863 2.21962 3.27225 
Ar 22.4022 5.36462 3.73865 
Ar 24.0957 2.03461 4.82819 
Ar 26.4326 5.45201 4.17059 
Ar 27.7078 1.7346 3.41383 
Ar 29.3532 5.17734 2.0479 
Ar 31.7261 2.20228 3.05732 
Ar 32.248 6.76924 4.76994 
Ar 2.08429 9.09812 4.71933 
Ar 3.32335 12.7951 3.89309 
Ar 5.36274 9.17313 4.41021 
Ar 7.29222 12.883 4.04979 
Ar 9.37175 9.15139 4.04357 
Ar 10.8349 13.0044 3.72112 
Ar 13.2932 9.87686 3.50435 
Ar 14.9421 13.1145 3.88519 
Ar 16.8051 9.31697 3.17023 
Ar 18.4825 12.7434 3.69643 
Ar 20.8642 9.14049 2.92429 
Ar 22.5308 12.4086 2.9162 
Ar 24.4383 9.52459 2.26625 
Ar 25.4102 13.4489 4.02316 
Ar 27.8957 8.78972 3.8229 
Ar 28.8488 12.8486 4.40096 
Ar 31.2822 9.54191 3.00187 
Ar 33.0676 13.3389 2.73845 
Ar 1.50803 16.8318 3.72029 
Ar 3.22885 19.8262 2.82303 
Ar 5.05045 16.1698 3.27276 
Ar 6.71454 19.6951 4.28979 
Ar 8.66741 16.092 3.21672 
Ar 10.6051 19.7657 4.06288 
Ar 12.785 16.0602 4.81177 
Ar 13.956 20.0293 3.72594 
Ar 16.0596 17.3104 3.08972 
Ar 17.8426 20.6185 3.62843 
Ar 19.6801 16.8665 3.7514 
Ar 21.9478 19.7562 3.911 
Ar 23.1782 16.269 3.16122 
Ar 25.7751 20.6162 2.81356 
Ar 27.0121 17.2918 2.85746 
Ar 29.2784 20.3247 4.60168 
Ar 30.6338 16.1775 4.63273 
Ar 32.4776 20.5556 2.56704 
Ar 1.85947 23.6528 2.05264 
Ar 3.9429 26.8843 4.1395 
Ar 5.10418 22.8495 4.36496 
Ar 7.47552 26.7555 3.61395 
Ar 8.72895 23.2456 3.13833 
Ar 11.2209 28.1272 2.81456 
Ar 11.6526 24.0954 4.92642 
Ar 15.5547 27.4799 4.28212 
Ar 15.4034 23.9901 3.22658 
Ar 19.037 27.1097 4.02512 
Ar 20.6172 23.0625 3.98172 
Ar 22.501 28.0929 4.52928 
Ar 24.283 24.9705 4.40391 
Ar 25.9644 28.2578 5.32241 
Ar 27.7201 23.5545 4.15595 
Ar 28.8732 27.0541 2.99639 
Ar 31.333 24.0988 3.37327 
Ar 32.52 27.4538 2.87846 
Ar 3.62054 4.09889 8.29013 
Ar 5.1098 7.90674 7.84171 
Ar 7.01092 2.96806 6.57875 
Ar 8.98221 6.11035 7.1571 
Ar 10.9157 2.95695 6.7116 
Ar 12.5853 6.81631 5.54956 
Ar 14.9739 4.47779 7.4046 
Ar 16.8398 8.82975 7.41515 
Ar 18.2306 3.58577 7.96705 
Ar 20.1933 7.2697 7.21771 
Ar 21.8111 3.26082 8.16387 
Ar 23.8187 6.41121 6.82843 
Ar 25.7185 3.17531 7.71776 
Ar 27.4395 6.55164 7.65254 
Ar 29.4165 4.12104 5.53428 
Ar 30.9427 6.58445 8.5322 
Ar 32.7878 3.40339 6.49441 
Ar 34.4233 7.13904 8.19554 
Ar 3.68611 11.3113 7.23991 
Ar 5.80364 14.8156 6.69078 
Ar 7.18544 11.4243 7.33781 
Ar 9.8636 13.9385 7.5704 
Ar 11.4102 10.6543 7.82397 
Ar 13.2809 15.314 8.61066 
Ar 14.7225 12.0036 7.2516 
Ar 16.4504 15.0948 6.49076 
Ar 18.2405 12.0449 7.88164 
Ar 20.4802 14.7115 7.56636 
Ar 21.8424 11.1048 6.94841 
Ar 24.1148 15.0128 7.41428 
Ar 25.3628 10.0093 6.54483 
Ar 27.7505 15.4498 7.23579 
Ar 28.7728 10.5716 7.60464 
Ar 30.9428 14.4173 7.84641 
Ar 32.4032 11.4896 6.29619 
Ar 34.9833 14.5652 7.20429 
Ar 3.74833 17.7599 7.25527 
Ar 5.36545 22.8525 7.96811 
Ar 7.50438 18.2617 7.74295 
Ar 9.1533 21.6547 7.26256 
Ar 10.9654 18.0815 7.98286 
Ar 13.2569 21.4219 7.09399 
Ar 14.7751 18.2277 7.15829 
Ar 16.9292 21.2449 7.02641 
Ar 18.6556 17.8508 7.15636 
Ar 20.4611 22 7.90351 
Ar 21.9716 18.5337 8.60053 
Ar 23.8302 22.0485 6.49215 
Ar 25.3275 18.4898 6.02906 
Ar 27.7228 22.3667 7.97144 
Ar 29.8445 18.2567 7.92135 
Ar 31.7794 22.0445 6.40195 
Ar 33.122 17.7332 7.01415 
Ar 35.2169 21.1471 6.97541 
Ar 3.83613 26.5994 7.57038 
Ar 6.25728 28.9817 8.26812 
Ar 7.86921 25.2284 7.06365 
Ar 9.21942 28.6959 6.51989 
Ar 11.1171 24.3538 8.48056 
Ar 12.9796 29.1219 6.01816 
Ar 14.4974 24.6463 7.32163 
Ar 16.6431 29.7815 6.86233 
Ar 18.0896 24.6608 6.42577 
Ar 19.7708 28.4386 7.19405 
Ar 22.4122 25.2653 7.21808 
Ar 23.2013 29.3009 8.07223 
Ar 26.08 25.8167 7.99374 
Ar 27.8434 29.5526 7.76942 
Ar 29.4136 26.5453 7.25483 
Ar 31.2698 29.2911 6.33574 
Ar 33.2771 26.3162 6.55571 
Ar 35.3116 29.8849 7.74159 
