216
#
Ar -0.305797 0.362936 -2.24955 
Ar 1.11352 1.37983 0.901293 
Ar 3.22596 -1.11631 -0.09075 
Ar 5.91968 3.03915 0.689306 
Ar 6.34591 -1.62977 1.00196 
Ar 8.98929 0.582027 -0.0881156 
Ar 9.92937 -0.87267 -3.30115 
Ar 13.629 4.12497 -1.31538 
Ar 13.286 0.57633 -1.74725 
Ar 17.5124 4.98327 -0.607156 
Ar 17.0558 1.38877 -0.544805 
Ar 21.7076 5.07839 -0.892688 
Ar 20.2715 1.83164 -0.257565 
Ar 23.4904 2.6065 1.10481 
Ar 26.2431 0.216514 2.67213 
Ar 27.8239 2.92746 0.418904 
Ar 30.2799 0.600947 1.68272 
Ar 31.545 3.71299 -0.756876 
Ar 0.063504 7.53893 4.05734 
Ar 0.959906 10.9165 2.11251 
Ar 3.02794 6.1693 2.77784 
Ar 4.93958 12.3701 0.982515 
Ar 7.3699 3.69075 -2.54976 
Ar 6.91085 8.32599 -1.66661 
Ar 10.1345 4.81607 -0.65207 
Ar 11.1217 11.6066 -0.35153 
Ar 12.9617 8.16011 -0.404316 
Ar 16.8432 11.3665 1.55149 
Ar 18.7999 8.41789 1.07108 
Ar 19.9051 11.5628 -0.852592 
Ar 22.6786 8.63586 -1.37558 
Ar 23.3829 12.3732 -1.65019 
Ar 25.832 5.66167 2.11643 
Ar 27.0589 13.2206 -2.33665 
Ar 27.1838 10.0365 -0.208139 
Ar 30.6265 12.2192 -1.59547 
Ar 0.832774 13.1688 -1.04833 
Ar 1.06384 17.7098 0.688839 
Ar 4.34941 15.5741 -1.34159 
Ar 4.54465 19.0166 2.13886 
Ar 6.60509 15.5859 1.4479 
Ar 8.93317 18.1006 0.0750241 
Ar 10.7202 15.2675 1.27462 
Ar 12.9667 17.8713 0.487723 
Ar 13.809 13.8286 1.22866 
Ar 16.1246 17.9206 -1.12583 
Ar 17.9424 14.5695 0.502535 
Ar 19.7682 18.6864 0.255504 
Ar 21.4182 15.2912 -0.0249462 
Ar 23.1479 18.1623 1.96029 
Ar 29.2559 15.9147 -0.708868 
Ar 25.8317 19.5932 -0.485657 
Ar 28.8472 12.8385 1.85655 
Ar 29.6422 19.5686 -0.284537 
Ar -1.65836 22.292 -2.08525 
Ar 0.720536 24.5771 -0.258424 
Ar 2.63248 21.0904 -0.0773815 
Ar 5.3751 23.9826 2.60182 
Ar 6.84796 21.9233 -0.230499 
Ar 9.10997 24.5456 1.75119 
Ar 11.0241 21.073 -0.132597 
Ar 12.5272 24.9439 0.411352 
Ar 14.5391 22.4699 -1.29561 
Ar 18.3615 24.5808 0.00462054 
Ar 17.8447 21.2119 -1.05721 
Ar 20.7443 27.3472 -1.85273 
Ar 21.9853 21.626 -0.189666 
Ar 22.8727 25.3627 0.754273 
Ar 24.8418 23.4766 -1.38677 
Ar 26.8469 25.9366 0.424247 
Ar 27.7746 22.2799 1.05363 
Ar 30.6591 26.7054 -1.144 
Ar 2.21618 1.32287 4.45429 
Ar 3.96285 4.2923 6.13317 
Ar 5.87936 0.542523 3.76115 
Ar 7.20019 6.29607 2.54503 
Ar 11.0718 3.58869 2.80143 
Ar 12.3993 6.66695 3.74415 
Ar 14.6754 2.91214 1.80245 
Ar 15.9029 6.65189 2.1695 
Ar 17.5429 1.1618 3.73427 
Ar 18.6445 5.37207 4.35863 
Ar 20.9899 2.27269 3.61343 
Ar 21.7143 6.66355 2.36849 
Ar 24.7557 3.05488 4.67214 
Ar 26.3932 5.93109 5.96345 
Ar 28.5346 3.01001 4.2497 
Ar 29.7822 6.1779 1.33348 
Ar 32.4597 4.19071 3.37233 
Ar 29.7795 6.19394 5.05712 
Ar 1.96926 7.30329 7.31631 
Ar 3.45296 10.8129 4.81026 
Ar 5.88748 9.29379 2.02617 
Ar 8.80193 12.5583 2.13891 
Ar 9.43901 9.0024 1.5441 
Ar 10.7231 12.8427 5.03601 
Ar 13.1514 10.4197 3.28468 
Ar 14.9029 13.0599 4.88798 
Ar 15.8546 8.94756 4.62342 
Ar 18.3091 14.2773 3.93797 
Ar 19.3683 8.86099 4.50225 
Ar 23.1804 10.5817 1.68385 
Ar 23.4838 8.43331 4.96164 
Ar 25.4877 11.9975 4.9062 
Ar 27.7859 9.47109 3.84533 
Ar 28.9118 12.7142 5.65244 
Ar 30.4478 9.58561 1.58705 
Ar 32.1623 14.1157 2.882 
Ar 0.89312 17.2007 4.37421 
Ar 2.06881 20.6926 3.90606 
Ar 3.37473 14.6985 3.03386 
Ar 7.21541 19.1264 4.51389 
Ar 8.74036 15.9374 4.38431 
Ar 11.5526 18.9067 3.70242 
Ar 12.7707 15.9292 4.5343 
Ar 14.1169 21.3127 1.94127 
Ar 16.3588 17.6822 3.53428 
Ar 18.2402 20.9404 2.28916 
Ar 20.5772 17.6539 4.06015 
Ar 21.3402 21.1706 4.72897 
Ar 22.6411 13.6835 3.01142 
Ar 24.3087 22.0067 2.42287 
Ar 25.5213 15.682 2.90905 
Ar 28.4415 19.8126 3.73166 
Ar 30.7634 17.4138 2.42042 
Ar 32.3284 21.5026 1.33449 
Ar 1.13865 24.3067 3.19428 
Ar 3.36878 27.368 3.48119 
Ar 5.47665 21.8461 6.24067 
Ar 7.04644 24.8612 5.72036 
Ar 9.35344 22.4154 4.3481 
Ar 12.0195 28.5197 1.25177 
Ar 10.3083 25.9709 5.21599 
Ar 15.5253 27.1601 2.46273 
Ar 16.6656 23.8627 3.21781 
Ar 19.7073 27.8368 1.66933 
Ar 20.4994 24.1956 3.73563 
Ar 22.7819 28.6506 3.53597 
Ar 25.236 25.5215 3.65177 
Ar 25.5756 28.8556 6.42691 
Ar 28.1297 23.4464 4.8581 
Ar 28.5778 27.2304 4.97585 
Ar 30.3807 24.9581 2.75485 
Ar 32.7527 27.2773 1.82356 
Ar 4.21601 5.89332 10.0306 
Ar 5.35163 7.78489 5.55711 
Ar 7.70877 3.48319 4.60855 
Ar 9.49758 6.45199 6.00415 
Ar 11.1523 3.4914 6.7865 
Ar 13.1733 7.02258 7.04043 
Ar 15.3675 4.12792 6.63451 
Ar 16.1373 8.3449 8.82475 
Ar 19.2969 3.06312 7.05042 
Ar 19.0952 6.79536 7.79377 
Ar 22.0132 1.18003 7.77666 
Ar 22.7268 5.42487 6.68523 
Ar 25.6671 3.20931 8.66609 
Ar 27.9423 6.53027 9.3686 
Ar 29.3162 3.35057 7.82255 
Ar 31.9181 7.7049 10.0197 
Ar 33.4079 3.56195 7.05471 
Ar 36.0421 9.32517 10.475 
Ar 5.52032 11.3703 7.88382 
Ar 6.17708 13.6291 5.34274 
Ar 8.39324 9.92874 5.92062 
Ar 9.10484 13.7312 8.64035 
Ar 11.4427 10.2673 7.53173 
Ar 13.105 15.0012 8.35959 
Ar 14.7839 11.7928 9.24534 
Ar 17.2101 15.1577 7.4826 
Ar 18.0694 11.7006 6.43591 
Ar 21.1133 15.9479 7.23688 
Ar 21.8782 11.4732 5.8724 
Ar 24.3162 15.1261 6.2515 
Ar 25.8567 9.11918 7.42347 
Ar 27.6842 16.678 5.56164 
Ar 29.4581 9.38749 7.75221 
Ar 32.0566 14.5217 6.80395 
Ar 32.5233 10.9423 6.39371 
Ar 35.8543 13.5572 7.03651 
Ar 4.09335 17.3971 5.96002 
Ar 5.43005 19.4546 9.10211 
Ar 6.97213 16.4777 7.54413 
Ar 9.12976 20.2521 7.9252 
Ar 10.5888 17.0906 7.35954 
Ar 12.9202 23.1077 4.97536 
Ar 13.5732 19.1345 7.63545 
Ar 16.5859 21.5687 6.25652 
Ar 19.1515 19.2618 7.17724 
Ar 20.8192 23.0481 7.83859 
Ar 22.4469 19.2203 8.33338 
Ar 24.71 22.2053 6.01979 
Ar 23.9689 19.0175 5.28045 
Ar 27.7191 21.8214 8.1191 
Ar 30.5463 18.7731 6.96161 
Ar 31.8293 21.349 5.16777 
Ar 34.1567 19.2333 7.80784 
Ar 34.8752 23.1565 7.46503 
Ar 4.49706 25.1646 9.4605 
Ar 6.1006 27.8789 7.24753 
Ar 8.45546 25.0776 9.4144 
Ar 9.37946 29.2843 3.9853 
Ar 10.9682 23.3519 7.89105 
Ar 13.7759 30.2965 4.90806 
Ar 14.3141 26.0068 7.82639 
Ar 16.0529 29.0469 7.22698 
Ar 18.0108 25.3281 6.61554 
Ar 19.6561 28.8592 5.58107 
Ar 23.0823 25.9095 6.78853 
Ar 24.2765 28.5077 10.6101 
Ar 27.2099 25.8149 7.95801 
Ar 28.2934 29.5347 9.1915 
Ar 32.2198 25.7133 6.63581 
Ar 31.8701 29.8858 5.55686 
Ar 35.0871 27.4406 7.2414 
Ar 36.2147 31.1522 8.83785 
