216
#
Ar -0.183843 0.0505269 -0.0893656 
Ar 2.03457 3.2552 0.574407 
Ar 3.51039 -0.370025 0.417325 
Ar 5.70976 2.24638 -0.188789 
Ar 7.76716 -0.536202 0.451533 
Ar 8.83744 3.58417 0.546206 
Ar 11.3677 -0.448325 -0.425202 
Ar 12.444 3.98754 0.332297 
Ar 14.8016 -0.378711 0.912665 
Ar 16.5383 4.21884 -0.12461 
Ar 18.3728 -0.520322 -0.224029 
Ar 20.524 4.3859 0.489614 
Ar 21.9607 -0.00982416 0.17998 
Ar 23.9462 3.85429 0.88719 
Ar 25.7034 0.438831 0.329343 
Ar 27.6715 3.6711 -0.784602 
Ar 29.2192 0.593385 -0.0915138 
Ar 31.4051 3.55828 -0.460925 
Ar -0.380422 7.08243 0.671086 
Ar 1.65005 11.2253 -0.41642 
Ar 3.48405 6.94604 0.265859 
Ar 5.19645 10.6359 -0.415907 
Ar 7.13142 6.58545 -0.306692 
Ar 9.08109 11.4341 -0.151392 
Ar 10.9384 8.05472 0.545378 
Ar 12.5675 11.2367 0.0987841 
Ar 14.6206 7.512 -0.15117 
Ar 16.5342 10.4829 -0.297792 
Ar 18.4522 7.43832 0.141432 
Ar 20.061 11.4634 -0.145854 
Ar 22.0392 8.3776 -0.530567 
Ar 24.0662 11.6742 -0.563542 
Ar 26.0443 6.87209 0.091867 
Ar 27.729 11.3989 -0.148182 
Ar 29.3389 8.33406 0.138277 
Ar 31.2204 11.1425 0.127868 
Ar -0.048842 14.7581 -0.59479 
Ar 1.72582 18.2727 -0.582309 
Ar 3.70011 14.7786 -0.362685 
Ar 5.60681 18.6272 0.21747 
Ar 7.33887 15.1431 -0.383835 
Ar 9.57029 17.9012 -0.233066 
Ar 11.1761 14.554 0.147128 
Ar 12.9472 17.598 0.455366 
Ar 14.841 13.8605 0.0272219 
Ar 16.5529 18.117 0.03706 
Ar 18.6075 14.8559 -0.10348 
Ar 19.7767 18.2264 0.664541 
Ar 21.9963 15.1027 -0.550061 
Ar 23.5806 18.4812 0.456495 
Ar 25.9223 14.7841 0.0374638 
Ar 26.92 18.3164 -0.630708 
Ar 29.6404 14.2712 0.798861 
Ar 31.0579 18.04 0.729446 
Ar -0.13185 22.0906 -0.435683 
Ar 2.15017 25.7307 -0.225936 
Ar 3.65855 21.4733 -0.310401 
Ar 5.63273 25.6725 0.494614 
Ar 7.27757 22.1958 0.0292094 
Ar 9.07519 25.2453 -0.121937 
Ar 10.994 21.3546 -0.179787 
Ar 12.52 25.3169 0.860039 
Ar 14.407 21.2515 -0.598701 
Ar 16.1412 25.8589 -0.417398 
Ar 17.8922 22.5345 0.0437468 
Ar 20.1603 25.1484 -0.676431 
Ar 22.0339 21.7778 -0.230116 
Ar 23.5744 25.8621 0.541202 
Ar 25.6128 22.4599 0.202959 
Ar 27.5955 25.8492 -0.0834374 
Ar 29.3565 22.4034 0.189929 
Ar 31.5039 25.8309 0.0374741 
Ar 2.13222 1.29926 3.88296 
Ar 3.23607 4.75101 3.88458 
Ar 5.64343 1.49415 3.76092 
Ar 7.09997 5.60873 3.88517 
Ar 9.29233 1.93341 3.60255 
Ar 10.8605 5.42068 3.10672 
Ar 13.1518 2.49035 3.8503 
Ar 14.9789 5.88505 2.95258 
Ar 16.8865 1.70284 3.50022 
Ar 18.6943 5.4374 3.33815 
Ar 20.3803 1.69059 3.51823 
Ar 22.2393 6.02396 4.01801 
Ar 23.9451 1.93585 4.25043 
Ar 25.9422 5.42716 4.4598 
Ar 27.6817 1.42233 3.25675 
Ar 29.3687 5.455 2.93755 
Ar 31.4378 1.87274 3.63916 
Ar 32.9101 6.11834 4.15301 
Ar 1.89211 9.22736 4.62564 
Ar 3.30841 12.7569 3.7937 
Ar 5.79355 8.85138 4.28908 
Ar 7.40233 13.0424 4.08395 
Ar 9.19939 9.31577 4.69489 
Ar 11.5125 13.2756 3.48156 
Ar 12.7215 9.34905 3.34656 
Ar 14.9237 13.1212 3.52931 
Ar 16.7493 10.0245 3.93141 
Ar 18.777 13.2047 4.21433 
Ar 20.1202 9.34409 3.40696 
Ar 22.2165 12.9355 3.33558 
Ar 24.0564 9.00876 3.47306 
Ar 25.5991 13.3147 4.52013 
Ar 27.6851 8.49459 3.54693 
Ar 29.3027 12.7775 4.1908 
Ar 31.3399 9.81307 3.46809 
Ar 32.4352 13.1944 3.181 
Ar 1.57256 16.1425 4.25875 
Ar 3.50642 19.973 3.00734 
Ar 5.08395 16.5889 3.39682 
Ar 7.18229 20.4792 4.38378 
Ar 8.83525 16.4845 2.84902 
Ar 10.8356 19.5669 3.9761 
Ar 12.4179 16.6074 4.89699 
Ar 14.5137 20.6391 3.6546 
Ar 16.1095 16.3711 3.55868 
Ar 18.2667 19.8118 3.37526 
Ar 19.797 16.5627 3.83168 
Ar 22.221 19.5221 4.24421 
Ar 23.6076 16.1311 3.22591 
Ar 26.0024 20.6163 3.34885 
Ar 27.2367 16.8813 3.05949 
Ar 29.5709 19.6182 4.37046 
Ar 30.8209 16.3612 4.33617 
Ar 32.9912 20.7007 2.82721 
Ar 1.70109 23.8401 2.58384 
Ar 3.47193 27.2512 3.38656 
Ar 5.09585 23.9205 3.64286 
Ar 7.64547 27.3591 3.63373 
Ar 8.43197 23.6239 3.26379 
Ar 11.252 27.7574 3.29437 
Ar 12.1166 23.883 4.05873 
Ar 15.1365 27.3101 4.09532 
Ar 15.9905 23.5353 2.8209 
Ar 18.5366 27.6348 3.54829 
Ar 20.55 23.7698 4.51713 
Ar 22.0805 27.908 4.15912 
Ar 23.9711 24.3558 3.9738 
Ar 25.7547 27.8472 4.33202 
Ar 27.9254 23.5614 3.69628 
Ar 29.08 27.1766 3.32593 
Ar 31.1503 24.0506 3.13429 
Ar 32.9888 27.5478 3.22796 
Ar 3.62746 3.85899 7.58746 
Ar 5.19716 7.92499 7.71442 
Ar 7.23519 3.26511 7.10399 
Ar 8.82377 6.44377 6.85846 
Ar 10.8591 3.31397 6.75946 
Ar 12.3697 6.65291 5.8996 
Ar 14.2715 3.58862 7.01377 
Ar 16.7642 8.25124 7.20576 
Ar 18.7831 3.59409 7.67591 
Ar 20.4125 7.06726 6.74122 
Ar 22.2726 3.85458 7.65795 
Ar 24.0903 7.07246 7.69963 
Ar 25.763 3.62759 7.41364 
Ar 27.6314 7.52124 7.49095 
Ar 29.0485 3.97471 6.1174 
Ar 31.2178 7.03375 7.86413 
Ar 32.9065 3.61066 7.24245 
Ar 34.9321 7.08844 7.62452 
Ar 3.20497 11.225 7.45744 
Ar 5.96838 15.0693 6.97225 
Ar 7.04332 11.0865 7.18109 
Ar 9.64973 14.2023 7.51127 
Ar 11.2717 10.6364 6.92584 
Ar 13.2977 15.1832 8.09225 
Ar 14.8848 11.3155 6.63145 
Ar 16.5436 14.7607 6.83713 
Ar 18.334 11.9126 7.6344 
Ar 20.3255 14.8843 6.71665 
Ar 21.8181 11.1705 7.53669 
Ar 23.7158 15.0734 7.43677 
Ar 25.2068 10.1083 6.53312 
Ar 27.5841 15.0356 7.05249 
Ar 28.9706 10.7599 7.00053 
Ar 30.8739 14.3956 7.13288 
Ar 32.4864 11.4163 6.59666 
Ar 34.6126 14.6023 7.35618 
Ar 3.82806 18.1796 7.62447 
Ar 5.84338 22.2043 7.17296 
Ar 7.45689 18.1615 8.14487 
Ar 9.49868 21.1775 7.54235 
Ar 11.1666 18.2124 7.73264 
Ar 13.0411 21.823 7.11388 
Ar 14.7177 18.5039 7.37254 
Ar 16.8977 21.3749 7.74614 
Ar 18.1485 17.8864 7.23787 
Ar 20.2532 22.2222 7.79493 
Ar 21.8726 18.1088 7.43893 
Ar 24.1134 22.0324 6.99569 
Ar 25.3681 18.3155 6.55512 
Ar 27.5498 22.4245 7.58518 
Ar 29.4904 18.348 7.73553 
Ar 31.3101 22.4961 6.97091 
Ar 32.8303 18.3686 7.27166 
Ar 34.9004 21.2611 7.61177 
Ar 3.67019 26.6934 7.59242 
Ar 5.81195 29.422 7.97875 
Ar 7.70477 25.526 7.07919 
Ar 9.24065 29.0664 6.50963 
Ar 11.4048 25.235 8.36105 
Ar 12.7151 29.4013 6.56611 
Ar 14.5621 25.456 7.37167 
Ar 16.321 30.0958 6.94248 
Ar 18.1832 25.1563 7.33561 
Ar 19.7583 28.5423 7.75616 
Ar 21.9164 25.5024 7.04873 
Ar 24.069 29.4035 8.02234 
Ar 25.5183 25.7572 7.57866 
Ar 27.4957 29.6273 7.82598 
Ar 29.3454 25.6798 7.37976 
Ar 31.4631 29.4554 6.91444 
Ar 32.9199 25.7375 7.06072 
Ar 34.7729 30.0169 7.68535 
