216
#
Ar -1.3346 1.28189 -2.27231 
Ar 1.09166 1.24383 2.02692 
Ar 0.674539 -1.56307 -0.659394 
Ar 5.09013 2.58276 1.74098 
Ar 6.78247 -0.987549 2.23639 
Ar 8.08781 2.62225 -0.273955 
Ar 8.10371 1.05113 -3.69897 
Ar 11.6199 3.07554 -0.795003 
Ar 11.8523 -0.503865 -2.18125 
Ar 18.3708 2.16089 2.08989 
Ar 15.5284 0.375327 0.324543 
Ar 22.0331 5.18421 -3.13306 
Ar 21.4719 1.20101 -1.10237 
Ar 25.2836 3.52389 1.52754 
Ar 27.2971 -0.381509 1.64087 
Ar 28.1865 2.93992 -0.016982 
Ar 30.7256 0.449799 0.945467 
Ar 31.7679 3.74153 0.234142 
Ar 0.956293 7.2435 5.05168 
Ar 1.14142 9.66288 1.68874 
Ar 1.60642 5.12863 2.26713 
Ar 6.39904 13.4564 -0.815836 
Ar 5.35251 4.47695 -1.7848 
Ar 10.2168 9.73019 -2.35185 
Ar 8.82731 5.75914 -2.34425 
Ar 13.783 10.8531 -0.500138 
Ar 12.0085 7.56098 -0.253026 
Ar 16.9379 9.36599 1.68514 
Ar 19.3026 6.89877 -0.701395 
Ar 20.8029 11.802 -1.45426 
Ar 22.6932 8.73287 -3.06108 
Ar 24.1823 11.7998 0.475963 
Ar 27.0017 6.24398 2.96242 
Ar 28.0931 13.6063 -2.85974 
Ar 29.0849 9.34491 0.324553 
Ar 31.4988 12.0498 0.13659 
Ar 2.51618 13.4002 0.627439 
Ar 1.7164 17.9862 1.10921 
Ar 3.18158 16.0012 -1.59257 
Ar 5.07971 19.6172 2.19844 
Ar 5.72907 16.2611 1.04502 
Ar 8.86553 19.3388 0.794682 
Ar 12.8312 14.9546 0.522118 
Ar 11.7978 18.2866 -2.00886 
Ar 15.68 12.757 1.92898 
Ar 15.3185 19.382 -1.47556 
Ar 19.839 14.1826 1.04781 
Ar 19.176 17.4447 -0.660436 
Ar 22.3287 15.8603 -1.18607 
Ar 22.2286 18.8355 1.68497 
Ar 27.7546 15.7841 0.157078 
Ar 26.2513 19.2379 -0.0799669 
Ar 27.6685 12.4469 0.94115 
Ar 29.9336 19.0449 -0.512093 
Ar -1.38443 22.2468 -1.9913 
Ar 0.670334 24.4435 0.483775 
Ar 4.04841 22.1852 0.473591 
Ar 6.03975 24.0919 2.97819 
Ar 7.52314 23.1368 -0.874867 
Ar 9.24 25.596 1.92632 
Ar 11.5175 21.6279 0.607451 
Ar 10.6341 24.9565 -1.51818 
Ar 14.6742 23.1655 -1.18996 
Ar 18.2795 23.9202 0.253973 
Ar 18.6527 20.765 -2.15551 
Ar 18.5983 27.9014 0.494893 
Ar 21.6513 24.2721 2.19081 
Ar 21.744 26.7229 -0.470035 
Ar 24.4011 22.2766 -0.76049 
Ar 26.6665 25.6439 -0.0508191 
Ar 28.3713 22.1728 0.658064 
Ar 29.8452 25.4276 -1.99411 
Ar 1.16158 0.623084 5.63575 
Ar 2.73443 4.13014 5.69855 
Ar 5.02639 0.572123 5.38656 
Ar 5.80175 5.98639 2.39682 
Ar 9.8261 5.55783 1.97714 
Ar 13.5743 5.74853 2.83543 
Ar 14.3751 1.87906 2.97805 
Ar 15.326 5.08944 -0.0920569 
Ar 16.3831 -0.566049 4.38968 
Ar 17.9972 5.70917 2.78889 
Ar 19.6317 2.72201 5.50457 
Ar 21.8311 3.92626 1.94993 
Ar 24.2497 3.44462 4.97532 
Ar 25.9154 6.5952 6.65072 
Ar 28.4414 2.95986 3.46093 
Ar 30.7056 6.35494 2.2036 
Ar 32.0084 3.71677 4.54863 
Ar 29.318 6.30685 5.47494 
Ar 2.48321 7.0205 10.0552 
Ar 4.34291 9.84633 4.20869 
Ar 7.33464 12.1544 2.43953 
Ar 10.3797 12.3197 0.468477 
Ar 8.67012 9.41434 0.945812 
Ar 11.3624 13.2048 3.83677 
Ar 13.1235 9.7539 3.29895 
Ar 16.4563 10.869 4.90957 
Ar 15.1416 7.63308 5.55751 
Ar 17.7567 13.9623 4.51877 
Ar 20.2589 10.7707 2.32848 
Ar 24.9789 6.41194 -0.505759 
Ar 23.8996 8.80419 3.63659 
Ar 26.0817 12.9542 4.34269 
Ar 27.8203 9.95089 4.46918 
Ar 30.0952 13.3511 4.75476 
Ar 31.0053 9.95296 3.18168 
Ar 33.5768 13.6776 3.6113 
Ar -0.830378 16.9861 5.83485 
Ar 0.728497 20.5849 5.29593 
Ar 4.17099 13.9015 3.43231 
Ar 7.13022 18.3066 5.18725 
Ar 9.40275 15.8631 1.82639 
Ar 11.4746 19.4862 3.61772 
Ar 14.2957 15.416 4.07132 
Ar 14.936 21.6234 2.08513 
Ar 16.4874 16.6953 1.4375 
Ar 17.9605 19.7769 1.57047 
Ar 20.1247 16.7458 3.4276 
Ar 20.1141 20.0565 4.81564 
Ar 22.5849 12.9997 3.61635 
Ar 24.649 21.1811 2.97223 
Ar 24.3062 15.7877 2.10355 
Ar 28.4587 19.6734 4.20451 
Ar 30.7446 16.4692 2.22199 
Ar 32.0777 21.0292 1.58707 
Ar 1.98012 24.1867 4.36576 
Ar 3.14219 27.3115 3.12999 
Ar 5.29143 21.3618 5.72939 
Ar 6.22111 25.6463 6.09733 
Ar 8.86245 22.9418 5.14528 
Ar 11.4655 28.9716 1.66661 
Ar 10.5726 26.2775 5.73969 
Ar 14.9334 26.4595 -0.0614018 
Ar 15.8858 25.3958 3.28087 
Ar 20.1044 27.6646 3.81831 
Ar 18.942 23.3493 5.33758 
Ar 23.2507 29.6347 2.02474 
Ar 25.0692 26.129 3.15838 
Ar 26.3242 29.1943 5.26526 
Ar 27.0539 23.519 4.75481 
Ar 28.8088 26.8636 5.0411 
Ar 30.1105 25.2219 1.61024 
Ar 32.2205 27.6552 3.24588 
Ar 5.22146 9.15616 11.1447 
Ar 6.20429 7.25124 6.12735 
Ar 7.48124 3.55368 5.05637 
Ar 10.794 6.62155 5.20394 
Ar 11.4606 3.09233 5.28943 
Ar 13.3416 5.53483 7.9335 
Ar 16.1308 4.03573 5.36633 
Ar 15.847 8.07417 9.00701 
Ar 17.9326 2.61761 9.21059 
Ar 18.2313 6.3891 6.99584 
Ar 22.9622 0.394465 6.68367 
Ar 21.0003 6.89153 4.75135 
Ar 24.9778 2.69789 8.48372 
Ar 28.9551 6.49063 9.32826 
Ar 28.4707 2.99458 7.24148 
Ar 32.1586 8.10469 10.0911 
Ar 32.7184 5.40796 7.70111 
Ar 35.4939 10.383 8.64496 
Ar 6.95313 10.5316 7.90679 
Ar 7.71372 14.5262 5.33933 
Ar 9.30207 10.1355 4.71576 
Ar 9.67394 13.4173 8.05762 
Ar 13.4255 10.0736 7.18774 
Ar 13.2752 14.0981 8.15449 
Ar 17.2561 11.4837 8.3306 
Ar 16.5602 15.8842 8.94952 
Ar 20.1384 11.0764 6.09819 
Ar 19.8561 14.7386 7.22133 
Ar 23.2877 13.0301 7.20328 
Ar 25.6142 16.0256 7.92968 
Ar 26.3122 10.5082 7.69033 
Ar 27.6553 16.2454 4.09321 
Ar 30.2373 10.425 7.04793 
Ar 31.5129 15.4186 9.58062 
Ar 33.5451 13.3177 7.83419 
Ar 37.2424 13.3317 7.16199 
Ar 2.95964 17.4055 4.7789 
Ar 4.17768 19.3397 8.58239 
Ar 7.49219 16.7456 9.05192 
Ar 8.77549 20.3134 8.2733 
Ar 11.088 16.1872 5.90523 
Ar 12.6967 24.0936 3.44471 
Ar 14.1392 18.744 5.8245 
Ar 15.5866 22.5005 6.61117 
Ar 17.5072 17.8975 6.13167 
Ar 21.2183 23.2035 9.42477 
Ar 22.2841 19.6638 9.25403 
Ar 23.4621 22.1886 6.41473 
Ar 23.2597 18.3865 6.01251 
Ar 27.56 21.2103 8.26686 
Ar 28.8706 17.3991 7.36763 
Ar 30.9065 22.9379 4.83599 
Ar 33.6393 18.4028 8.64457 
Ar 35.2993 22.4389 8.12283 
Ar 4.05598 25.8765 10.4069 
Ar 5.06353 29.677 9.54629 
Ar 8.47397 28.2022 10.2382 
Ar 9.00454 30.6453 2.97261 
Ar 11.8265 22.3505 7.94577 
Ar 12.7115 29.022 5.10934 
Ar 14.3797 25.9236 7.15184 
Ar 15.4968 29.5649 7.70648 
Ar 17.6894 25.6422 8.07131 
Ar 19.6008 28.6716 7.42978 
Ar 22.3364 25.9922 6.51454 
Ar 24.7029 28.4125 9.44864 
Ar 26.1671 25.6242 7.42459 
Ar 28.3588 28.6231 9.23123 
Ar 32.5702 26.3283 6.55782 
Ar 30.3546 29.9521 5.02661 
Ar 36.095 27.3125 6.59237 
Ar 34.8208 31.9892 9.00552 
