216
#
Ar -1.74057 1.69195 -2.73047 
Ar 1.42156 1.28744 2.03525 
Ar -0.366397 -1.22492 -0.728904 
Ar 4.99224 2.80532 1.18802 
Ar 6.97026 -1.30075 2.15711 
Ar 8.55676 2.6572 -0.818783 
Ar 7.96271 0.722758 -4.52433 
Ar 11.9439 2.63247 0.449939 
Ar 12.1817 -0.419213 -2.4996 
Ar 18.4349 1.49817 1.95962 
Ar 15.3178 0.769434 0.0281913 
Ar 22.0927 5.05733 -2.13336 
Ar 21.6178 1.44933 -1.64888 
Ar 24.78 3.0151 1.49574 
Ar 26.3971 -0.0299703 2.08939 
Ar 28.0244 2.27679 -0.760017 
Ar 29.7893 0.126238 1.44464 
Ar 31.4682 3.68981 0.406682 
Ar 3.05792 8.38852 5.48125 
Ar 1.85069 8.80918 2.01488 
Ar 1.79334 5.05549 2.37017 
Ar 6.52386 13.4708 -0.587531 
Ar 5.90939 4.444 -2.22357 
Ar 10.2034 9.3896 -2.53882 
Ar 9.20202 6.05392 -1.97314 
Ar 14.2795 11.0616 -1.64824 
Ar 12.4117 7.44814 -0.430043 
Ar 16.0958 8.39694 1.18581 
Ar 19.141 7.13358 -0.384247 
Ar 21.1044 12.0589 -0.906896 
Ar 22.8891 8.85411 -2.79338 
Ar 24.7305 11.4471 0.0410556 
Ar 26.0353 6.09688 2.556 
Ar 28.4036 13.3298 -2.64024 
Ar 27.2723 9.04286 0.357267 
Ar 31.2178 11.9015 0.0515459 
Ar 2.67824 12.8319 -0.0736516 
Ar 2.21096 17.6667 2.14703 
Ar 3.91534 15.8619 -1.95081 
Ar 5.56307 20.6003 2.60247 
Ar 5.65579 16.9105 1.30859 
Ar 8.41354 19.0472 0.11218 
Ar 13.4481 15.7089 1.16325 
Ar 11.4614 17.432 -1.29991 
Ar 16.6774 13.1222 0.949515 
Ar 14.4869 18.9327 -0.871263 
Ar 19.7561 14.779 1.43054 
Ar 19.2442 17.86 -1.61546 
Ar 22.6361 15.847 -1.27138 
Ar 22.6217 18.8722 2.07748 
Ar 27.3059 15.6242 -0.406769 
Ar 25.3803 19.0226 -0.394278 
Ar 27.8701 12.7048 1.73448 
Ar 30.3985 18.9647 0.107151 
Ar -1.9213 21.8239 -1.68374 
Ar -0.144166 24.4716 -0.297477 
Ar 3.131 22.4112 0.0106222 
Ar 5.64021 24.5125 2.89802 
Ar 7.46698 22.524 -0.291386 
Ar 9.60837 25.1311 2.332 
Ar 10.856 21.25 -0.689291 
Ar 11.5399 25.3735 -1.08304 
Ar 14.2354 22.7636 -1.35688 
Ar 17.7831 24.2472 1.0054 
Ar 17.6747 21.207 -2.07279 
Ar 18.2805 27.6362 0.849876 
Ar 21.6121 24.6551 2.88325 
Ar 21.5034 27.1918 -0.00211633 
Ar 23.9059 23.0255 0.0449181 
Ar 26.0112 25.9421 0.768258 
Ar 28.0632 22.216 0.348899 
Ar 28.6809 24.4326 -2.51506 
Ar 1.01678 1.18933 5.76385 
Ar 3.36379 4.60177 5.74627 
Ar 4.68405 0.693396 5.90357 
Ar 4.82852 7.07706 2.44171 
Ar 8.53453 5.1855 1.79208 
Ar 12.3915 5.52967 2.95741 
Ar 15.1859 2.6633 2.86188 
Ar 15.3797 5.37153 -0.218504 
Ar 16.5038 -1.08205 4.17339 
Ar 17.7352 5.13254 2.47629 
Ar 21.1803 3.29264 5.59811 
Ar 21.5202 4.24696 1.25036 
Ar 24.5655 3.80918 5.18085 
Ar 25.0393 7.42449 5.72904 
Ar 28.5621 3.21674 2.70784 
Ar 29.9923 6.45262 2.26146 
Ar 31.9398 3.95858 4.57961 
Ar 30.1135 7.26817 5.74799 
Ar 2.49844 5.92844 8.76604 
Ar 5.29926 10.4616 3.74683 
Ar 8.24005 12.5905 2.38704 
Ar 10.8989 11.4603 0.213242 
Ar 8.01837 9.11064 0.536303 
Ar 11.359 12.9543 3.81823 
Ar 13.3635 10.2849 2.36446 
Ar 16.9324 9.78079 5.40163 
Ar 15.6716 6.46052 5.23568 
Ar 17.9898 13.1964 4.62277 
Ar 19.2304 10.3549 1.65606 
Ar 24.9014 6.74295 -0.597406 
Ar 23.6527 9.41827 2.85414 
Ar 26.4845 13.3601 5.1592 
Ar 27.1542 9.98595 4.29584 
Ar 30.3608 13.5419 4.8271 
Ar 31.4725 9.93504 3.91726 
Ar 34.222 14.3054 4.53019 
Ar -0.379349 17.128 6.04174 
Ar 1.73438 20.1263 5.23735 
Ar 4.48222 13.9678 2.88698 
Ar 7.52348 18.1978 3.95081 
Ar 9.55836 15.6007 1.07693 
Ar 10.8232 19.5717 3.19809 
Ar 14.5108 15.2405 4.31864 
Ar 14.7961 19.6428 2.99528 
Ar 16.8983 17.024 2.00739 
Ar 19.1809 20.1643 1.42402 
Ar 20.2034 16.8091 4.63636 
Ar 20.3135 20.9859 5.41211 
Ar 22.3711 12.9481 2.96689 
Ar 25.7092 20.0387 4.02949 
Ar 24.8758 15.5831 2.26501 
Ar 29.8062 20.2436 3.92146 
Ar 31.1982 16.0419 2.41171 
Ar 33.5093 20.9947 1.92102 
Ar 2.28395 24.0316 4.08991 
Ar 3.58454 27.1791 3.83427 
Ar 4.65835 22.2399 6.25817 
Ar 6.65156 25.3196 8.37093 
Ar 8.67295 22.6842 4.57749 
Ar 11.8117 27.8128 1.5478 
Ar 9.77503 26.6857 6.67966 
Ar 14.9198 26.7435 -0.895907 
Ar 15.7268 24.7563 4.0228 
Ar 19.9395 28.2081 4.21505 
Ar 19.2394 24.9351 5.43846 
Ar 22.4676 29.903 1.93782 
Ar 24.63 26.5239 3.83829 
Ar 26.8943 30.5045 5.51234 
Ar 26.9833 23.5213 4.22059 
Ar 28.6806 26.5519 5.01184 
Ar 29.5808 25.5343 0.937968 
Ar 31.8413 27.2589 3.35253 
Ar 4.50132 10.0757 10.2628 
Ar 6.23003 7.22612 6.1781 
Ar 7.27985 3.8715 5.28095 
Ar 10.8922 6.84101 5.93809 
Ar 10.7677 3.38058 5.88975 
Ar 13.3885 4.90523 8.17314 
Ar 17.4085 2.70303 6.18148 
Ar 15.9207 8.08045 8.3208 
Ar 18.2942 3.29567 9.97339 
Ar 19.0919 6.22833 6.96958 
Ar 23.243 0.112479 6.02035 
Ar 20.6863 6.99094 3.49346 
Ar 25.2541 2.98152 8.58117 
Ar 28.8762 5.81556 9.73405 
Ar 28.6594 4.13579 6.64542 
Ar 31.8921 7.87646 10.5762 
Ar 31.9457 5.27278 8.16672 
Ar 34.2108 9.91316 8.24418 
Ar 6.56238 10.6289 7.82859 
Ar 6.74136 14.417 5.62666 
Ar 8.85584 9.69927 4.89658 
Ar 9.61326 12.7551 7.3867 
Ar 12.9691 9.93657 6.24931 
Ar 12.9436 13.6064 7.55182 
Ar 17.807 11.289 9.00061 
Ar 16.3156 15.4164 9.2238 
Ar 20.8005 10.5667 5.48107 
Ar 20.3851 14.3555 7.10357 
Ar 23.7298 12.6783 7.59973 
Ar 25.7228 15.9974 7.25556 
Ar 26.4772 10.3425 8.17941 
Ar 27.9863 17.1176 3.72212 
Ar 30.4027 10.5479 7.84012 
Ar 31.8068 15.8513 9.66464 
Ar 33.2776 13.341 7.68674 
Ar 36.848 12.5366 6.78621 
Ar 4.31787 16.8347 5.53102 
Ar 4.88535 19.3052 8.69336 
Ar 8.29491 16.1086 8.71952 
Ar 8.90707 20.0964 7.82436 
Ar 10.7109 16.2159 4.96941 
Ar 12.4126 23.3997 3.54054 
Ar 13.4336 18.1131 6.46648 
Ar 15.2825 22.0595 6.2659 
Ar 17.1109 17.555 5.8289 
Ar 20.2136 23.5452 9.24847 
Ar 22.0191 20.3106 8.90365 
Ar 23.5292 22.9906 6.91422 
Ar 23.5409 18.1992 5.81936 
Ar 27.0016 21.3864 7.83679 
Ar 29.178 18.4715 7.12462 
Ar 31.4436 23.4501 4.05781 
Ar 34.1679 19.2837 9.23106 
Ar 35.0105 24.0225 7.91013 
Ar 3.93826 25.977 11.0455 
Ar 5.56196 29.46 9.44639 
Ar 9.0753 28.2573 10.1754 
Ar 8.92751 30.9786 2.56912 
Ar 12.0982 21.4161 6.50592 
Ar 12.7558 29.2977 4.54736 
Ar 13.7798 25.6621 6.62774 
Ar 15.6179 29.2917 7.27002 
Ar 17.2016 25.0068 8.07522 
Ar 18.9867 28.4186 7.99825 
Ar 21.9017 26.4504 7.57038 
Ar 24.8895 28.9577 9.72464 
Ar 25.8969 26.298 7.54837 
Ar 28.6191 28.239 8.67162 
Ar 32.4318 26.2035 6.93426 
Ar 30.3513 29.9554 5.19285 
Ar 35.6864 27.6566 7.72768 
Ar 34.9668 31.128 9.46363 
