216
#
Ar 0.442897 -0.24957 -0.783832 
Ar 2.06342 3.05817 1.31806 
Ar 3.93424 -0.804446 0.197892 
Ar 5.69678 2.32217 0.135258 
Ar 7.9462 -0.176026 1.16819 
Ar 8.98267 2.31944 -1.38481 
Ar 11.8261 -1.82885 -2.14745 
Ar 12.5496 4.39112 -0.86928 
Ar 13.6997 0.257342 0.441855 
Ar 17.0162 4.44607 0.183412 
Ar 17.4369 0.0505448 -0.0880974 
Ar 21.6457 4.84322 0.077962 
Ar 21.3691 0.00562469 0.577336 
Ar 24.7713 3.46589 1.08293 
Ar 26.4981 0.523877 0.105375 
Ar 28.6226 3.48842 -0.186918 
Ar 29.8875 0.16117 0.933675 
Ar 32.3569 2.98934 -1.08787 
Ar 0.105862 6.31433 1.14045 
Ar 1.58867 12.5614 0.097113 
Ar 3.93361 6.34909 0.910769 
Ar 5.21576 9.63683 0.94387 
Ar 6.95015 5.62688 -0.785711 
Ar 8.87546 11.8701 -0.0996126 
Ar 9.47934 8.04302 -0.248331 
Ar 12.6102 11.8793 0.719811 
Ar 13.1188 8.05119 -1.38185 
Ar 16.2163 10.0474 -0.215277 
Ar 18.8844 7.59095 -0.10874 
Ar 19.6221 11.2952 -0.162558 
Ar 22.5981 8.39693 -0.89324 
Ar 23.0359 12.3347 -1.20362 
Ar 26.0082 6.53923 0.212179 
Ar 27.1095 11.9531 -0.72878 
Ar 28.9048 8.70708 0.205057 
Ar 31.1468 11.97 -0.95009 
Ar -0.467912 15.4509 -0.124798 
Ar 1.37189 18.6531 -0.292535 
Ar 3.43199 15.6493 -0.71249 
Ar 5.33163 18.6586 0.45668 
Ar 7.51929 15.4749 -1.16415 
Ar 9.24868 18.9371 0.561715 
Ar 10.5938 14.8896 0.945214 
Ar 12.9545 17.6936 1.34912 
Ar 15.2888 14.2007 0.489522 
Ar 16.4784 18.4837 -1.35886 
Ar 18.5283 15.7795 -0.205704 
Ar 19.6782 18.968 0.673577 
Ar 22.036 15.4818 0.438735 
Ar 24.1122 19.2025 1.19838 
Ar 26.2559 15.707 -0.12641 
Ar 26.8061 19.5711 -1.04772 
Ar 29.5344 14.6853 1.14579 
Ar 29.7816 18.2572 0.954864 
Ar -0.879125 22.5642 -1.27139 
Ar 1.71322 25.9433 -0.0720714 
Ar 2.77178 21.9166 -0.468844 
Ar 4.8332 24.5287 0.487325 
Ar 6.96443 21.6305 0.432987 
Ar 8.00836 25.452 -0.445777 
Ar 10.4962 22.4735 1.1698 
Ar 13.2844 25.3145 0.788281 
Ar 14.0331 21.1385 -0.000390919 
Ar 16.3504 25.3867 -0.13637 
Ar 17.5831 21.9466 -0.284949 
Ar 19.7371 26.3056 -0.76603 
Ar 21.908 22.8213 0.444602 
Ar 23.3151 26.3819 0.943308 
Ar 25.2318 23.3613 -0.709924 
Ar 27.5165 26.0853 0.230053 
Ar 29.105 22.8871 1.01177 
Ar 30.8891 26.0547 -0.758263 
Ar 1.67509 0.542646 4.23839 
Ar 3.65595 3.82311 4.94798 
Ar 5.39255 0.442243 4.03337 
Ar 6.92381 4.8193 3.67368 
Ar 9.6005 2.14449 3.59056 
Ar 10.6504 5.67782 3.58372 
Ar 13.2203 3.04397 3.50078 
Ar 14.4832 6.3693 2.52615 
Ar 16.7124 2.13054 3.171 
Ar 18.4761 5.76809 4.2771 
Ar 20.4323 2.2977 3.44442 
Ar 22.7162 5.51266 3.56502 
Ar 24.0081 2.4171 4.5556 
Ar 26.0951 5.25747 4.47532 
Ar 27.9617 1.96326 3.70875 
Ar 29.7517 5.6257 2.28924 
Ar 31.6334 2.67804 2.63221 
Ar 31.1898 7.34979 5.35499 
Ar 1.41188 8.82169 4.05542 
Ar 3.24838 12.0879 4.01763 
Ar 5.94084 8.60098 4.2069 
Ar 7.64352 12.8332 2.82642 
Ar 9.65854 9.17519 3.97276 
Ar 10.9172 12.4766 4.14597 
Ar 13.4612 9.47824 3.49938 
Ar 14.9515 12.9976 3.99986 
Ar 17.3468 9.03156 3.62779 
Ar 18.2816 12.353 3.72738 
Ar 20.849 8.92359 2.96392 
Ar 21.6322 12.6711 2.63253 
Ar 25.1908 10.6945 2.36588 
Ar 26.9274 13.7978 3.1429 
Ar 28.1036 8.92545 4.12277 
Ar 29.7668 12.3261 4.86554 
Ar 31.421 10.2784 2.22631 
Ar 32.6973 13.4681 3.39072 
Ar 1.19128 16.7433 3.03151 
Ar 3.11952 20.0255 2.85134 
Ar 4.90616 15.2861 2.9135 
Ar 6.47844 18.7118 3.94303 
Ar 8.83887 15.8421 4.31194 
Ar 10.1284 19.1706 4.26152 
Ar 12.282 15.7526 4.90321 
Ar 14.1288 20.4887 3.45317 
Ar 16.0159 16.6044 2.96636 
Ar 18.2101 20.9626 3.13122 
Ar 19.9229 16.3951 3.79008 
Ar 21.7777 19.9566 4.14683 
Ar 23.5147 15.7821 4.69443 
Ar 25.85 21.9119 2.59401 
Ar 26.6361 17.2033 2.97802 
Ar 28.7041 19.89 4.49139 
Ar 30.4954 16.5742 4.71477 
Ar 32.5883 20.8935 2.62567 
Ar 1.71749 23.5984 3.22829 
Ar 3.5906 26.8154 3.47645 
Ar 4.90511 22.7894 4.71082 
Ar 7.748 25.9551 3.46503 
Ar 8.1227 22.602 3.5356 
Ar 10.9753 27.9095 2.73921 
Ar 11.5762 25.0585 4.81284 
Ar 15.9479 27.6617 3.29365 
Ar 15.4765 23.6371 4.09814 
Ar 19.4019 26.8527 2.71685 
Ar 21.4404 23.8565 4.15369 
Ar 22.4294 28.23 4.24331 
Ar 24.493 24.8762 4.29956 
Ar 26.0841 28.3983 5.52143 
Ar 27.7837 23.911 4.70266 
Ar 28.9319 27.39 3.35198 
Ar 31.2436 24.5601 3.48327 
Ar 32.6733 27.5842 2.37603 
Ar 3.73787 4.23803 8.52538 
Ar 5.21426 7.34997 7.29742 
Ar 6.97927 2.72026 6.6206 
Ar 9.10169 6.55405 7.2235 
Ar 11.4816 3.06175 6.62507 
Ar 12.3687 7.45053 6.11686 
Ar 14.9899 5.30734 7.55803 
Ar 16.1874 8.60189 7.15123 
Ar 18.226 3.73428 7.55607 
Ar 19.8778 7.16346 7.6382 
Ar 21.7575 2.15741 8.2055 
Ar 23.5363 6.57017 7.17607 
Ar 25.3634 3.1243 8.4656 
Ar 27.1772 6.61147 8.08399 
Ar 29.7819 3.35354 6.62682 
Ar 30.6326 6.36927 8.87963 
Ar 33.6728 2.77801 6.75145 
Ar 34.3887 7.80854 8.9233 
Ar 3.7689 11.0097 7.73553 
Ar 5.52611 14.1183 6.64581 
Ar 7.64116 11.0513 6.91935 
Ar 9.88986 14.3783 7.20415 
Ar 10.7227 9.83236 7.94324 
Ar 13.0785 15.5696 8.80365 
Ar 14.2687 11.6801 8.32019 
Ar 17.5226 15.2101 6.01328 
Ar 18.1439 12.0489 7.60436 
Ar 20.6099 15.1885 7.45995 
Ar 21.4833 10.7763 5.89517 
Ar 24.2846 14.9931 7.84969 
Ar 25.2462 10.3424 6.70163 
Ar 27.8364 15.4944 7.54332 
Ar 29.2791 9.69417 7.41663 
Ar 31.1459 14.97 7.72187 
Ar 32.8879 11.0862 6.74 
Ar 34.6336 14.2602 6.53034 
Ar 3.79694 17.4493 6.69973 
Ar 5.61365 22.3274 8.18286 
Ar 7.26497 18.3413 7.69467 
Ar 8.5394 21.3472 6.78989 
Ar 10.5803 17.7108 7.77044 
Ar 12.7375 21.1971 7.36087 
Ar 15.0278 18.1554 6.15491 
Ar 16.352 21.2657 7.22806 
Ar 19.3027 18.618 6.81708 
Ar 20.3573 21.628 8.06316 
Ar 22.7961 18.7004 8.20149 
Ar 24.6493 21.6635 5.94449 
Ar 25.7198 18.3783 6.35384 
Ar 28.2279 22.3063 7.97167 
Ar 30.0163 19.1299 7.77856 
Ar 31.7241 21.7006 6.11762 
Ar 33.3995 17.7131 7.61461 
Ar 35.3059 20.8572 6.39218 
Ar 4.6071 26.396 8.02523 
Ar 6.64305 29.27 8.72047 
Ar 8.08383 25.5276 7.01653 
Ar 9.26393 28.7415 5.84424 
Ar 11.1369 24.0554 8.69339 
Ar 12.975 29.3135 5.30383 
Ar 14.6554 24.5176 7.68619 
Ar 16.112 30.1593 6.9115 
Ar 18.2844 24.793 6.6626 
Ar 19.8773 28.6363 7.7037 
Ar 21.7731 24.8732 8.05179 
Ar 24.0775 28.1332 8.25618 
Ar 25.826 25.209 7.57052 
Ar 28.7304 29.9614 8.28478 
Ar 29.8873 25.6176 7.06995 
Ar 30.8833 29.6389 5.20958 
Ar 33.5187 26.4122 5.7051 
Ar 36.2507 29.6358 7.67874 
