216
#
Ar -1.56841 1.7187 -2.55802 
Ar 1.329 1.02716 2.0977 
Ar -0.135807 -1.21807 -0.351786 
Ar 4.69501 3.01325 1.73306 
Ar 6.84569 -1.28767 2.18383 
Ar 9.26918 2.13341 -1.06043 
Ar 8.79738 -0.200657 -4.07047 
Ar 12.5301 2.29368 0.896474 
Ar 11.8784 -0.0416952 -2.31008 
Ar 18.5951 1.6562 2.70321 
Ar 15.6479 0.790987 0.141378 
Ar 21.3641 5.28261 -2.40046 
Ar 21.3661 1.60068 -1.68378 
Ar 25.5056 3.33878 0.457681 
Ar 25.9488 -0.563226 2.19678 
Ar 28.1719 1.90531 -1.44844 
Ar 30.1726 0.281243 1.36826 
Ar 31.3098 3.7751 0.609621 
Ar 2.73428 8.30496 5.80787 
Ar 1.78301 8.99253 2.22937 
Ar 1.50941 5.10942 1.27654 
Ar 5.96915 12.9581 -1.10141 
Ar 5.90432 4.10304 -2.28976 
Ar 10.3063 9.51968 -2.87516 
Ar 10.1216 5.67446 -1.57552 
Ar 14.1627 11.0924 -0.944913 
Ar 12.7652 7.82534 -0.411946 
Ar 16.2864 8.41838 1.24183 
Ar 19.7292 7.70424 -0.857401 
Ar 21.1022 12.1322 -0.32434 
Ar 22.3051 9.4318 -2.32071 
Ar 24.6256 12.3825 0.428021 
Ar 26.2147 6.63874 2.55725 
Ar 28.475 13.7609 -2.55497 
Ar 27.651 9.52959 0.463424 
Ar 31.4048 12.3477 0.318267 
Ar 1.82104 13.6251 -0.348744 
Ar 1.87042 17.4455 2.28728 
Ar 3.81142 15.9641 -2.38176 
Ar 4.83369 21.0272 2.67748 
Ar 5.24668 16.9559 0.869429 
Ar 8.38928 19.0305 0.486111 
Ar 13.3816 15.8233 1.07399 
Ar 10.8041 17.5914 -1.72959 
Ar 16.5601 12.8401 1.03982 
Ar 14.9409 19.0161 -0.282744 
Ar 20.1829 15.2953 0.638801 
Ar 19.1485 17.6369 -1.76692 
Ar 23.125 16.1793 -1.23753 
Ar 23.1683 18.8255 2.16555 
Ar 27.2863 16.7546 0.298243 
Ar 25.044 19.101 -1.01519 
Ar 27.9694 13.0937 1.29144 
Ar 29.8831 18.9178 0.623117 
Ar -2.07254 21.6115 -2.62666 
Ar -0.283363 24.6704 -0.106976 
Ar 3.77569 22.6023 -0.675273 
Ar 6.07952 24.8173 3.77037 
Ar 7.47339 22.5619 0.414772 
Ar 9.35608 25.2861 2.05089 
Ar 10.6944 21.1825 -0.515253 
Ar 11.0256 24.5859 -1.08735 
Ar 14.3602 22.9473 -1.47733 
Ar 18.6212 23.2192 1.04505 
Ar 17.6675 21.204 -1.53616 
Ar 18.0189 27.4105 0.762405 
Ar 21.53 24.8961 2.77134 
Ar 22.504 27.2717 -0.126578 
Ar 24.3181 22.4674 -0.907961 
Ar 25.781 25.5142 0.304541 
Ar 27.689 21.7273 0.310172 
Ar 28.5352 23.9929 -3.5303 
Ar 0.665643 1.05746 5.71867 
Ar 2.60124 4.3853 4.87318 
Ar 4.63473 1.72089 6.60804 
Ar 4.99805 6.72464 2.78964 
Ar 8.00627 4.80228 1.34545 
Ar 12.7168 5.70227 2.6454 
Ar 15.2512 2.46508 3.37923 
Ar 15.3631 4.91195 0.497847 
Ar 15.8953 -0.802124 3.75695 
Ar 18.1966 5.22956 3.08581 
Ar 21.0801 3.36993 4.74179 
Ar 21.5223 4.44153 1.16463 
Ar 24.8304 3.59232 4.06925 
Ar 24.3956 7.44268 6.1359 
Ar 28.3282 3.48828 3.21174 
Ar 30.0336 7.10157 2.67585 
Ar 32.1243 4.31589 4.1589 
Ar 29.7305 7.47234 6.17364 
Ar 2.66268 6.2834 9.30521 
Ar 5.2167 10.253 3.82175 
Ar 8.1985 12.554 2.27318 
Ar 10.6672 12.6013 -0.185724 
Ar 7.7849 9.32728 0.763734 
Ar 11.4057 13.2637 4.03919 
Ar 12.7018 9.84237 2.43722 
Ar 17.0654 9.07378 4.90879 
Ar 15.3842 5.82975 5.17881 
Ar 18.486 12.8769 4.4196 
Ar 19.2823 10.5126 2.19985 
Ar 24.7812 6.73054 -0.739985 
Ar 24.1907 9.38446 2.38271 
Ar 26.8318 13.3013 4.80237 
Ar 27.9044 9.91583 3.9508 
Ar 30.4636 13.8374 5.25385 
Ar 31.8739 10.7608 3.61074 
Ar 34.5158 14.1205 3.97925 
Ar -0.186536 17.0442 6.21313 
Ar 2.33403 19.8961 5.27758 
Ar 4.42323 13.8134 2.11067 
Ar 7.47599 17.942 3.78335 
Ar 9.53666 15.7919 1.56402 
Ar 10.8415 19.8716 2.85399 
Ar 15.4414 14.7478 4.41014 
Ar 14.0888 18.8663 3.61192 
Ar 17.1553 17.0028 1.66537 
Ar 19.6472 19.8378 1.72633 
Ar 20.579 16.677 4.10429 
Ar 20.7762 21.4916 5.27436 
Ar 22.1703 12.9708 3.26446 
Ar 25.8221 20.1144 3.96565 
Ar 24.8577 15.8752 2.98457 
Ar 30.4099 20.2737 4.30622 
Ar 31.9215 15.6641 2.25506 
Ar 32.9755 20.4937 1.9613 
Ar 2.28145 23.1041 3.11181 
Ar 3.63153 27.7396 4.55098 
Ar 5.1258 22.2635 6.7534 
Ar 6.31966 25.3373 9.30992 
Ar 8.14758 21.4454 4.39679 
Ar 11.8328 28.3505 1.3202 
Ar 9.18727 25.638 6.78461 
Ar 14.1067 26.2354 -0.344418 
Ar 15.8352 24.6933 3.39638 
Ar 20.4511 28.363 4.7869 
Ar 18.8349 24.6804 5.51605 
Ar 22.6843 30.345 2.22984 
Ar 24.3078 26.4016 4.55395 
Ar 26.8402 30.0511 6.40743 
Ar 27.1505 23.9384 3.87043 
Ar 28.2347 27.3811 4.47473 
Ar 29.3659 25.4099 1.15578 
Ar 32.8691 27.2582 3.17954 
Ar 4.01077 9.62953 10.7272 
Ar 7.06232 7.34281 6.33458 
Ar 6.88098 3.55636 4.82637 
Ar 11.0141 6.687 5.77757 
Ar 10.2688 3.26908 6.08373 
Ar 13.3648 4.32572 7.62196 
Ar 17.8607 2.38012 6.29537 
Ar 15.6198 7.42405 8.42428 
Ar 18.5878 3.52492 10.0638 
Ar 19.2633 6.61 6.04886 
Ar 23.3449 0.769419 6.03782 
Ar 20.9301 7.66576 3.19086 
Ar 24.7376 3.76068 7.78563 
Ar 28.2003 5.96979 10.2389 
Ar 28.383 4.25912 6.79241 
Ar 31.8947 7.32943 10.7943 
Ar 32.2176 5.53504 7.62274 
Ar 33.7934 9.44968 8.81089 
Ar 6.85175 10.7735 7.19333 
Ar 6.18433 13.7645 5.41377 
Ar 9.21025 9.80431 4.25093 
Ar 9.81606 13.3116 7.15715 
Ar 13.5945 9.63217 5.93287 
Ar 13.0925 14.7359 7.30434 
Ar 18.1703 10.6821 8.54422 
Ar 15.9299 15.7597 9.11528 
Ar 21.0653 10.4868 5.45656 
Ar 20.395 13.8292 7.63482 
Ar 24.2416 12.4057 7.49194 
Ar 26.0274 16.3898 7.4354 
Ar 26.8976 9.58053 7.47428 
Ar 28.6929 16.458 4.07092 
Ar 30.3286 10.8598 7.66596 
Ar 32.6044 16.4584 9.82811 
Ar 32.6382 13.309 8.15403 
Ar 36.0149 12.1215 6.70825 
Ar 4.19376 16.6745 5.34399 
Ar 5.59687 19.3117 9.23079 
Ar 7.18805 16.2016 8.12019 
Ar 8.32824 19.2164 6.92266 
Ar 10.2595 16.3808 5.58018 
Ar 12.7454 22.7674 2.7216 
Ar 13.7633 18.2764 7.12422 
Ar 16.2746 21.1716 5.73753 
Ar 17.0839 17.731 6.08495 
Ar 20.9862 23.928 9.43936 
Ar 21.6006 20.0893 8.76887 
Ar 23.4232 23.2059 6.42344 
Ar 23.1043 18.4864 6.17011 
Ar 26.3163 21.1333 7.46922 
Ar 29.3927 18.414 7.96207 
Ar 31.6512 23.9649 3.93169 
Ar 34.7375 19.2897 10.0459 
Ar 34.8829 24.542 7.51103 
Ar 3.23112 26.4117 10.9848 
Ar 5.35175 29.2904 9.84027 
Ar 9.12371 27.4792 10.2888 
Ar 9.49923 31.0476 2.98708 
Ar 11.1167 21.7405 6.63627 
Ar 12.3851 29.2744 4.99831 
Ar 13.0626 25.9431 6.5219 
Ar 15.356 28.4868 7.56032 
Ar 16.745 25.105 8.44169 
Ar 18.8071 28.3727 8.15995 
Ar 21.6818 26.4144 7.2729 
Ar 24.819 29.4072 9.54374 
Ar 25.896 26.2579 7.96709 
Ar 28.9 27.7465 9.38229 
Ar 31.2501 26.2951 7.00084 
Ar 30.295 30.1828 5.03129 
Ar 35.123 28.1845 7.95853 
Ar 35.3528 31.3908 9.47989 
