216
#
Ar -0.464037 0.772894 -1.27832 
Ar 1.10253 0.880633 2.20534 
Ar 0.0991304 -2.70834 0.0495019 
Ar 4.81761 1.80423 2.26837 
Ar 6.94948 -1.00856 2.3446 
Ar 8.44827 1.74125 0.19613 
Ar 8.26208 -1.54585 -5.01084 
Ar 11.9888 2.98711 0.812427 
Ar 12.3155 -0.397425 -1.54742 
Ar 18.3514 2.30168 2.48005 
Ar 16.315 0.338083 -0.778347 
Ar 21.396 4.19729 -2.70103 
Ar 21.4786 0.958306 -1.09108 
Ar 24.5559 3.38754 0.678051 
Ar 26.6093 0.489516 1.42471 
Ar 28.4072 1.90136 -1.82965 
Ar 30.4141 0.150489 1.48907 
Ar 31.4526 4.14668 0.238835 
Ar 2.037 7.74637 5.63837 
Ar 1.49208 10.3141 2.28214 
Ar 1.64364 5.68335 1.1992 
Ar 4.97162 13.1394 -1.62778 
Ar 6.3695 4.2246 -1.8469 
Ar 9.91234 9.65404 -2.32283 
Ar 10.1658 4.92503 -1.59524 
Ar 14.0406 11.4166 -1.29689 
Ar 13.2175 6.71223 -1.27976 
Ar 15.8116 8.69361 0.735244 
Ar 19.7702 6.90658 -0.946909 
Ar 21.3913 11.9317 -0.0177965 
Ar 22.8674 9.7571 -2.56808 
Ar 25.2006 13.7243 0.378438 
Ar 26.1112 6.35348 2.22696 
Ar 28.3158 14.0806 -1.82461 
Ar 26.8563 9.72907 -0.530181 
Ar 30.8506 11.9471 0.271113 
Ar 1.64636 14.0773 0.523675 
Ar 0.820855 17.8651 1.59522 
Ar 3.03389 15.7213 -3.31057 
Ar 4.57124 20.4235 2.8997 
Ar 4.8262 16.4313 0.316384 
Ar 7.361 19.1076 0.233136 
Ar 12.7912 15.4031 1.29709 
Ar 10.9785 16.6248 -1.72742 
Ar 17.4941 12.2276 0.57829 
Ar 14.9707 20.5894 1.58343 
Ar 20.5894 15.6037 0.55077 
Ar 19.7474 18.1095 -3.14012 
Ar 22.9726 17.4124 -1.83301 
Ar 23.2608 18.0013 1.51516 
Ar 27.3398 16.5208 0.854341 
Ar 25.6826 20.2538 -0.865574 
Ar 28.1761 13.0758 2.31888 
Ar 30.0226 19.3954 0.860423 
Ar -0.861552 20.5923 -3.15382 
Ar -1.25987 23.3153 -0.48391 
Ar 2.69326 23.7506 -0.372787 
Ar 6.56312 24.8395 4.1254 
Ar 7.46706 22.521 -0.208776 
Ar 9.82175 25.3814 3.27073 
Ar 11.2892 20.5638 -0.55125 
Ar 11.4223 25.0293 -1.31978 
Ar 14.2548 22.3977 -1.93044 
Ar 18.1219 22.2064 2.28751 
Ar 17.2259 20.3044 -1.47808 
Ar 18.1042 26.1108 2.23202 
Ar 22.2494 24.9734 3.05642 
Ar 22.5147 26.9455 0.0660348 
Ar 24.5949 24.0194 -0.762169 
Ar 25.7229 26.5168 1.0829 
Ar 28.008 22.612 0.0586962 
Ar 29.0863 24.1181 -3.80669 
Ar 1.28628 1.52289 5.99719 
Ar 2.81985 4.25968 4.66441 
Ar 4.90579 1.27888 6.17388 
Ar 5.44812 6.75925 2.26439 
Ar 9.01744 5.10402 1.66804 
Ar 11.839 6.94003 2.45182 
Ar 12.9566 3.66719 4.26752 
Ar 15.1539 4.27389 1.41373 
Ar 15.6202 -0.14631 2.82945 
Ar 18.8601 6.28404 2.48911 
Ar 21.0689 3.99632 4.5406 
Ar 20.936 4.17557 0.788385 
Ar 25.2668 3.5741 4.1357 
Ar 23.4586 6.58807 5.12575 
Ar 28.8333 3.75746 3.04662 
Ar 30.5732 7.10814 2.57761 
Ar 32.1439 3.82364 4.41307 
Ar 30.5954 7.61102 5.94809 
Ar 3.2716 6.98899 8.82032 
Ar 5.56716 9.97891 4.41567 
Ar 7.44093 12.1659 2.00457 
Ar 10.646 12.5131 -0.00237654 
Ar 8.48786 8.71197 0.964936 
Ar 11.749 13.8166 4.14539 
Ar 13.1473 10.4703 2.27305 
Ar 17.1307 10.1736 4.25803 
Ar 15.6438 6.68271 4.61418 
Ar 19.1837 13.2248 3.43121 
Ar 19.6738 9.38217 1.48836 
Ar 24.3695 6.77569 -1.17559 
Ar 24.6696 10.3397 2.64052 
Ar 26.6421 12.6155 6.21179 
Ar 28.0797 9.61169 4.05113 
Ar 30.3333 14.481 5.16746 
Ar 31.4088 11.1015 3.65571 
Ar 33.9157 13.5781 4.14093 
Ar -0.411163 17.6586 5.45987 
Ar 2.26772 20.5128 5.3755 
Ar 4.38483 13.4129 2.41862 
Ar 7.18498 17.8414 4.27768 
Ar 9.14996 16.0048 2.15694 
Ar 11.2814 19.651 2.92765 
Ar 15.299 13.5229 5.05533 
Ar 13.6321 16.7832 4.54311 
Ar 17.1617 16.5177 2.41915 
Ar 19.7225 19.2365 0.637834 
Ar 20.592 16.148 4.31123 
Ar 20.0437 20.0488 4.51852 
Ar 22.7226 13.2694 3.63759 
Ar 26.5771 20.0042 2.61205 
Ar 24.978 15.6771 3.60945 
Ar 30.5686 20.8763 4.59274 
Ar 30.9658 15.602 1.40077 
Ar 33.615 21.291 2.46775 
Ar 2.54383 24.8142 3.13691 
Ar 3.83024 27.711 4.71424 
Ar 3.92519 22.9391 7.15496 
Ar 5.24161 26.0306 8.16687 
Ar 8.12847 21.8263 3.51784 
Ar 11.4275 28.7955 2.20635 
Ar 8.24709 23.9727 7.10887 
Ar 14.7436 26.5169 -0.319011 
Ar 14.7697 25.1532 3.05012 
Ar 19.7809 28.9347 4.70561 
Ar 19.6249 23.9848 5.0737 
Ar 22.7943 30.3922 2.25982 
Ar 24.4492 27.8269 4.24453 
Ar 26.7313 30.3566 5.88202 
Ar 27.9265 23.5022 3.51963 
Ar 28.5523 27.0355 4.87925 
Ar 29.6018 25.8311 1.23056 
Ar 32.7356 27.5599 4.04838 
Ar 5.02671 10.0445 11.7818 
Ar 8.12696 6.79362 6.8853 
Ar 6.64486 4.10511 4.98331 
Ar 11.961 6.40693 6.23973 
Ar 9.20866 2.30903 7.51721 
Ar 14.9241 3.55856 7.46875 
Ar 17.9426 2.40011 6.07338 
Ar 16.5035 6.62834 8.28494 
Ar 18.0488 3.23949 9.68606 
Ar 19.7233 6.93988 6.40868 
Ar 22.6487 1.27662 6.4813 
Ar 22.2701 7.18778 1.97137 
Ar 25.0392 3.62307 7.79873 
Ar 28.5054 6.3169 10.2228 
Ar 28.5718 4.60718 6.52072 
Ar 31.6241 8.3945 10.0766 
Ar 33.0943 5.22102 8.19002 
Ar 34.8847 10.0346 9.6146 
Ar 6.39073 9.34013 8.29721 
Ar 5.88418 13.6909 5.5293 
Ar 9.49687 9.64734 4.97042 
Ar 8.88761 12.8979 7.37633 
Ar 13.4387 10.2156 5.86436 
Ar 12.5334 13.8915 7.65369 
Ar 17.5922 11.8245 8.03638 
Ar 16.754 15.1448 9.28312 
Ar 20.5131 10.5826 5.30531 
Ar 19.9707 14.2465 7.37227 
Ar 23.3806 14.0162 7.65628 
Ar 25.9556 16.4392 7.62501 
Ar 26.1263 8.59646 7.3997 
Ar 27.9736 17.2932 4.76199 
Ar 29.1512 10.9274 7.85532 
Ar 32.5501 16.7499 9.36799 
Ar 32.4786 12.1521 7.62958 
Ar 36.0751 11.4365 6.22021 
Ar 3.37238 16.553 3.73127 
Ar 5.14035 19.2711 7.44985 
Ar 6.91381 16.27 8.0538 
Ar 8.76454 19.4246 7.93088 
Ar 10.2249 17.036 5.81252 
Ar 12.0946 22.9841 1.99933 
Ar 14.3344 18.1795 8.44676 
Ar 16.1218 20.0466 5.0532 
Ar 16.7762 16.4925 6.15947 
Ar 20.384 24.0724 10.0735 
Ar 21.9007 21.2141 9.10195 
Ar 23.1523 23.2109 6.02479 
Ar 23.3481 19.3836 6.21407 
Ar 27.5741 20.8521 6.55176 
Ar 29.0659 18.4896 8.47162 
Ar 31.1558 24.3467 4.09086 
Ar 35.8953 20.0162 10.3841 
Ar 33.8162 24.1999 7.35365 
Ar 3.48872 27.3198 11.6998 
Ar 5.62345 29.4098 9.68367 
Ar 8.59021 26.7583 10.0666 
Ar 9.34459 31.2811 3.82113 
Ar 12.0227 21.719 6.03935 
Ar 11.9509 29.9256 5.40203 
Ar 12.8471 25.8751 6.50958 
Ar 16.0644 28.0468 6.05506 
Ar 16.7982 24.6613 7.78042 
Ar 19.0764 27.2649 9.61948 
Ar 21.8785 26.5216 6.94204 
Ar 25.0441 28.9977 9.12752 
Ar 25.7886 25.4897 6.8185 
Ar 28.3951 27.7074 8.8443 
Ar 31.3799 26.7084 6.98702 
Ar 30.265 29.9393 5.8754 
Ar 35.0782 28.1067 7.94892 
Ar 35.9598 32.325 9.64898 
