216
#
Ar 0.269779 0.0957237 -0.427603 
Ar 1.94712 3.04477 1.18989 
Ar 3.79379 -0.368755 0.66717 
Ar 5.25984 3.04 0.41077 
Ar 7.93749 -0.303349 0.609975 
Ar 9.20764 2.91411 -0.295917 
Ar 11.5905 -1.24805 -1.55827 
Ar 12.7009 4.19931 -0.362039 
Ar 14.1198 -0.012796 1.35574 
Ar 16.5313 4.42462 -0.0592334 
Ar 17.8293 -0.218509 -0.226158 
Ar 21.2593 4.87299 0.267399 
Ar 21.6335 -0.0150459 0.682466 
Ar 25.0104 3.39901 1.6466 
Ar 25.6816 0.017832 0.621913 
Ar 28.2034 3.7922 -1.07954 
Ar 29.6936 0.0495842 0.294556 
Ar 31.8868 3.41834 -0.623209 
Ar -0.172723 6.71157 1.14507 
Ar 2.06803 11.9627 -0.215476 
Ar 3.36838 6.39058 0.601757 
Ar 5.34828 10.2976 0.0999599 
Ar 7.08556 6.01833 -0.550919 
Ar 8.60864 11.8566 -0.375382 
Ar 9.68405 8.27516 0.475067 
Ar 12.8551 11.3238 0.0095296 
Ar 13.8485 7.72704 -1.14555 
Ar 16.215 10.3669 -0.147749 
Ar 18.7042 7.57209 0.354522 
Ar 19.8731 11.9338 0.355662 
Ar 22.3479 8.46452 -0.489347 
Ar 23.7728 11.7883 -0.819117 
Ar 26.0455 6.86819 1.03865 
Ar 27.3276 11.929 -0.373835 
Ar 29.0313 8.58335 -0.155711 
Ar 31.0042 11.681 -0.604049 
Ar -0.0664397 15.4716 -0.119718 
Ar 1.61877 18.4514 -0.140646 
Ar 3.63037 15.1784 -0.617944 
Ar 5.92817 18.268 0.462819 
Ar 7.36076 15.3076 -1.08611 
Ar 9.55909 18.0676 0.412092 
Ar 10.6527 14.5369 0.360594 
Ar 12.7901 17.1224 1.37775 
Ar 15.5098 13.9253 0.188988 
Ar 16.4926 18.4651 -1.13702 
Ar 18.9487 15.5541 -0.340897 
Ar 20.1087 19.0213 0.589118 
Ar 22.1924 15.4924 -0.00323339 
Ar 23.6447 18.5951 0.837519 
Ar 25.6408 15.1912 -0.10568 
Ar 26.96 18.8799 -0.908456 
Ar 29.0976 14.5434 1.13958 
Ar 30.2613 18.1471 1.17993 
Ar -0.214888 22.7158 -1.26681 
Ar 1.5615 25.6774 -0.9343 
Ar 3.1632 21.7793 -0.421067 
Ar 5.23374 25.362 0.868299 
Ar 7.02375 21.7186 0.0756899 
Ar 8.73402 25.3994 0.0585741 
Ar 10.7704 21.9895 0.40516 
Ar 12.2346 25.4188 0.728795 
Ar 13.9376 20.8378 -0.178628 
Ar 16.2711 25.2132 -0.588477 
Ar 18.1098 21.6113 -0.27991 
Ar 20.198 25.7142 -0.437212 
Ar 21.7004 22.5939 0.635251 
Ar 24.2017 26.5324 1.16949 
Ar 25.4978 23.2879 0.0684763 
Ar 27.6361 26.371 0.0675086 
Ar 29.2055 22.8791 0.648373 
Ar 30.996 26.2478 -0.73052 
Ar 1.98037 0.491972 3.91293 
Ar 3.26476 4.06958 4.43304 
Ar 5.94302 0.694463 3.58732 
Ar 6.75719 4.56826 3.21533 
Ar 9.54989 1.85335 3.25571 
Ar 10.2129 5.54943 3.20548 
Ar 13.2693 2.91434 3.29266 
Ar 14.9416 6.22444 2.75998 
Ar 17.1246 2.22385 2.95814 
Ar 18.6109 5.46736 3.79199 
Ar 20.8545 2.38162 3.31376 
Ar 22.3027 5.41004 3.75794 
Ar 24.0537 1.97852 4.82649 
Ar 26.6043 5.42261 4.20831 
Ar 27.5743 1.81659 3.52659 
Ar 29.4478 5.24301 2.23116 
Ar 31.9254 2.25376 2.83848 
Ar 31.9383 6.78046 4.8805 
Ar 2.04212 9.0157 4.57445 
Ar 3.43936 12.8522 3.87514 
Ar 5.55406 9.31794 4.35688 
Ar 7.01285 12.5749 3.91142 
Ar 9.40033 9.11809 3.91494 
Ar 10.9162 12.8004 3.80412 
Ar 13.3643 10.0021 3.5788 
Ar 14.7927 13.1124 4.03832 
Ar 16.8605 9.1458 3.01972 
Ar 18.4665 12.5922 3.62446 
Ar 20.8852 8.91145 2.90707 
Ar 22.5093 12.4389 2.94593 
Ar 24.661 9.7886 2.09481 
Ar 25.5986 13.441 3.81253 
Ar 27.8095 8.86895 3.97652 
Ar 29.0175 12.6949 4.53243 
Ar 31.2901 9.71009 2.73866 
Ar 33.1545 13.2855 2.93796 
Ar 1.4314 16.8516 3.33229 
Ar 3.20764 19.8639 2.86028 
Ar 5.08165 15.9769 3.30488 
Ar 6.4915 19.4154 4.24004 
Ar 8.72166 16.1186 3.46241 
Ar 10.3755 19.7672 4.09736 
Ar 12.8974 15.9561 4.77149 
Ar 13.9946 20.0769 3.6864 
Ar 16.2678 17.1306 3.13261 
Ar 17.8502 20.9123 3.64602 
Ar 19.5518 16.915 3.683 
Ar 21.7552 19.9335 3.79415 
Ar 23.1261 16.1568 3.28294 
Ar 25.8113 20.9017 2.71914 
Ar 26.9722 17.3801 2.97032 
Ar 29.0433 20.3128 4.52626 
Ar 30.6167 16.2351 4.79002 
Ar 32.5338 20.6817 2.63999 
Ar 1.89145 23.7574 2.23175 
Ar 3.81244 26.8845 3.8462 
Ar 5.09479 22.5164 4.48953 
Ar 7.63524 26.6466 3.48604 
Ar 8.6235 22.9166 3.24138 
Ar 11.2164 28.0578 2.69521 
Ar 11.6624 24.2824 5.07011 
Ar 15.6357 27.5874 4.05922 
Ar 15.517 23.8375 3.52539 
Ar 19.1917 26.9539 3.8041 
Ar 20.6486 23.0321 3.8555 
Ar 22.5387 28.2033 4.48727 
Ar 24.2576 25.0774 4.40159 
Ar 26.1159 28.3533 5.36613 
Ar 27.8624 23.5753 4.28498 
Ar 28.9433 27.1302 3.20691 
Ar 31.3328 24.1234 3.44059 
Ar 32.4272 27.4409 2.79377 
Ar 3.7688 4.19352 8.47789 
Ar 5.04502 7.74465 7.69672 
Ar 6.97186 2.91815 6.53002 
Ar 9.0255 6.18723 7.19651 
Ar 10.9733 2.92126 6.87085 
Ar 12.581 6.95455 5.66302 
Ar 15.0561 4.70009 7.47992 
Ar 16.6816 8.80306 7.43417 
Ar 18.2705 3.59122 7.96452 
Ar 20.2391 7.26437 7.34112 
Ar 21.6745 3.00395 8.22157 
Ar 23.739 6.3998 6.75792 
Ar 25.4865 3.14106 7.73742 
Ar 27.2705 6.4201 7.65868 
Ar 29.493 4.17947 5.58241 
Ar 30.8093 6.36055 8.65539 
Ar 32.8982 3.14054 6.52457 
Ar 34.4674 7.28099 8.35574 
Ar 3.80184 11.2771 7.33628 
Ar 5.71662 14.6974 6.72698 
Ar 7.34182 11.4047 7.352 
Ar 9.87626 14.051 7.49404 
Ar 11.2528 10.4849 7.93396 
Ar 13.2941 15.1913 8.64055 
Ar 14.6667 12.0748 7.52314 
Ar 16.558 15.2433 6.34469 
Ar 18.2185 12.1476 7.85775 
Ar 20.5331 14.8256 7.68298 
Ar 21.8219 11.0363 6.6829 
Ar 24.1042 15.0615 7.51761 
Ar 25.4284 10.0551 6.51346 
Ar 27.7534 15.6209 7.29239 
Ar 28.847 10.4427 7.73419 
Ar 30.9459 14.4335 7.95381 
Ar 32.3887 11.5682 6.31674 
Ar 34.9472 14.5787 7.05591 
Ar 3.64612 17.7354 7.16558 
Ar 5.32551 23.0161 8.05341 
Ar 7.42561 18.2667 7.63273 
Ar 9.03615 21.7962 7.11743 
Ar 10.8799 18.2129 7.94072 
Ar 13.0861 21.1339 7.26307 
Ar 14.778 18.0751 6.8179 
Ar 16.8937 21.326 6.90754 
Ar 18.8064 17.9582 7.15339 
Ar 20.361 21.9322 7.98906 
Ar 22.1729 18.6062 8.71632 
Ar 24.0024 21.9819 6.3269 
Ar 25.4578 18.3262 6.12346 
Ar 27.7884 22.3398 8.01839 
Ar 29.9033 18.3177 7.91414 
Ar 31.8804 22.0304 6.30762 
Ar 33.2435 17.6812 7.16517 
Ar 35.3269 21.0806 6.75709 
Ar 4.0275 26.2574 7.79067 
Ar 6.47513 29.0275 8.44819 
Ar 7.9181 25.1745 7.1217 
Ar 9.34437 28.6475 6.56493 
Ar 11.0412 24.1116 8.47392 
Ar 12.9088 29.159 5.98742 
Ar 14.6016 24.5554 7.32592 
Ar 16.612 29.7613 6.85336 
Ar 18.1891 24.5428 6.2673 
Ar 19.7576 28.5921 7.28976 
Ar 22.4103 25.0538 7.29131 
Ar 23.1501 29.1855 8.02751 
Ar 25.9666 25.695 7.8506 
Ar 28.0568 29.6317 7.98808 
Ar 29.5596 26.5026 7.04144 
Ar 31.228 29.4487 6.11655 
Ar 33.2023 26.3516 6.35873 
Ar 35.4554 29.7787 7.83732 
