216
#
Ar -0.46294 0.442954 -1.89678 
Ar 1.83538 2.56693 0.797955 
Ar 3.12707 -2.1769 -0.135551 
Ar 5.26712 2.55094 0.972453 
Ar 6.44665 -2.04438 1.00626 
Ar 8.88073 1.23637 -0.0281268 
Ar 9.95719 -1.03462 -3.17682 
Ar 13.9565 5.24947 -0.979179 
Ar 12.8171 0.839024 -1.57862 
Ar 17.5077 4.74639 -0.847399 
Ar 16.7085 1.23224 -0.771836 
Ar 20.8922 5.48764 -0.733727 
Ar 20.4456 1.4476 -0.25625 
Ar 24.4978 2.60304 0.654567 
Ar 26.3446 -0.2154 2.23918 
Ar 28.1827 2.97081 0.277213 
Ar 30.4832 0.83576 1.52224 
Ar 31.7183 4.19667 -0.679224 
Ar -0.0280858 7.63246 3.47028 
Ar 1.24069 10.8091 2.29477 
Ar 3.92919 6.09115 2.43205 
Ar 4.25407 12.4606 0.355539 
Ar 7.64387 4.391 -2.56853 
Ar 7.26342 8.32043 -0.881532 
Ar 10.3254 5.59816 0.0701909 
Ar 10.7955 11.6851 0.06753 
Ar 12.7468 8.52093 -0.0750857 
Ar 16.0952 10.9058 1.69804 
Ar 18.5514 7.94183 0.636484 
Ar 19.73 11.4976 -0.596122 
Ar 22.584 8.70025 -0.982935 
Ar 23.4549 12.239 -1.45486 
Ar 25.7962 6.55308 1.41777 
Ar 26.9075 13.3127 -2.41986 
Ar 27.5798 10.1235 -0.0723075 
Ar 30.3837 12.6861 -1.37333 
Ar 0.973119 13.6967 -0.304391 
Ar 1.08525 17.7495 0.359845 
Ar 3.74651 15.7901 -1.36488 
Ar 4.35008 18.4253 1.55292 
Ar 6.75779 15.4432 1.11248 
Ar 8.60359 18.1556 -0.642063 
Ar 10.4416 15.2882 1.18992 
Ar 13.2756 17.818 0.235162 
Ar 13.6471 14.0182 1.37176 
Ar 16.5683 17.9699 -1.26242 
Ar 18.1115 15.1206 -0.185926 
Ar 19.879 18.5116 0.170858 
Ar 22.3196 15.4027 -0.390049 
Ar 23.7768 18.0548 1.85937 
Ar 28.8373 16.1544 -0.991545 
Ar 25.6851 20.1727 -0.228344 
Ar 28.6075 12.8854 1.93411 
Ar 29.6356 19.4997 -0.21475 
Ar -1.74833 22.5782 -2.4225 
Ar 0.839434 24.8858 -1.06094 
Ar 2.70229 21.3038 -0.353349 
Ar 4.7451 23.9015 2.15365 
Ar 7.44122 21.6465 -0.0478338 
Ar 9.55345 25.1753 2.28589 
Ar 11.0124 21.2799 0.642009 
Ar 12.723 24.864 0.716458 
Ar 14.2938 22.4638 -1.71985 
Ar 18.3346 24.9459 0.433634 
Ar 17.9591 21.5026 -1.47178 
Ar 20.1975 27.3138 -1.09363 
Ar 20.8225 22.3632 0.792148 
Ar 22.6722 25.7612 1.19679 
Ar 24.1158 23.5586 -1.03936 
Ar 26.6603 26.0351 0.605204 
Ar 27.8694 22.6455 1.68883 
Ar 30.0591 25.6262 -0.944928 
Ar 2.37823 1.00963 4.81373 
Ar 3.7786 4.31835 6.23552 
Ar 6.13149 0.401597 3.63402 
Ar 7.67858 5.65233 2.3185 
Ar 10.7666 2.77406 2.39806 
Ar 11.9345 6.42348 3.20888 
Ar 14.1782 3.45574 2.07328 
Ar 15.2516 7.08863 2.02349 
Ar 17.0577 1.85507 3.37733 
Ar 18.4664 5.37983 3.70109 
Ar 21.1673 2.49756 3.78651 
Ar 21.8633 5.66036 2.76967 
Ar 24.6211 2.81646 4.36789 
Ar 26.3852 5.90212 5.46139 
Ar 28.3367 2.63663 4.11382 
Ar 29.4425 6.10202 2.16581 
Ar 32.015 3.63425 3.339 
Ar 30.4927 6.51828 5.7517 
Ar 1.59415 7.60517 6.95814 
Ar 3.76381 10.9639 4.54966 
Ar 5.78866 9.27573 2.16753 
Ar 7.9552 12.5436 2.71947 
Ar 9.36513 8.61795 1.88792 
Ar 10.466 12.8222 5.19859 
Ar 12.411 10.8833 3.15722 
Ar 15.1641 12.7656 4.85919 
Ar 15.6927 9.40469 4.80362 
Ar 18.6322 13.9702 3.66555 
Ar 20.6002 8.88192 4.32317 
Ar 22.43 11.4053 2.06852 
Ar 24.197 8.24403 3.87846 
Ar 25.6762 11.8216 4.45033 
Ar 27.727 8.86341 4.11246 
Ar 29.2028 12.6504 5.73546 
Ar 30.5754 10.1454 2.03314 
Ar 32.383 13.6432 2.99522 
Ar 0.646735 18.2315 4.84287 
Ar 3.02329 21.148 4.01633 
Ar 2.73651 15.1323 2.30962 
Ar 7.34881 19.492 4.22875 
Ar 8.7495 15.9289 4.54832 
Ar 11.477 19.178 3.77026 
Ar 12.6578 15.6572 4.72481 
Ar 14.6794 20.5976 2.18089 
Ar 16.5786 17.8142 3.46208 
Ar 18.2912 21.0411 2.80496 
Ar 20.1312 17.4876 3.62147 
Ar 21.8864 20.3878 4.38795 
Ar 22.0252 14.8641 3.29657 
Ar 24.1844 22.2887 2.49534 
Ar 26.2613 15.3818 2.62112 
Ar 28.3868 19.6929 3.72767 
Ar 30.8107 17.0314 2.46165 
Ar 32.5482 20.6128 1.73959 
Ar 0.794513 24.2816 3.97605 
Ar 3.59516 26.7908 3.83289 
Ar 5.52481 21.7684 6.52939 
Ar 7.4244 24.8874 5.07436 
Ar 9.64589 22.3678 4.49921 
Ar 12.1399 28.6019 1.5661 
Ar 11.6907 25.9226 4.91929 
Ar 15.0001 27.4082 3.44776 
Ar 16.2477 24.186 3.24763 
Ar 19.2108 28.4551 2.29622 
Ar 19.9912 25.1877 3.60798 
Ar 23.2255 28.218 3.74291 
Ar 25.4598 25.6308 4.34309 
Ar 26.2998 29.0797 6.60691 
Ar 28.4587 23.2596 5.21646 
Ar 28.6789 27.7465 4.50592 
Ar 30.195 25.2486 2.56688 
Ar 32.9975 27.7827 1.97274 
Ar 3.79361 5.24551 9.61915 
Ar 5.67549 7.40878 5.57488 
Ar 8.18232 3.04299 5.05274 
Ar 9.26931 6.81352 6.1251 
Ar 11.4382 3.08116 7.35411 
Ar 12.7682 6.56548 6.77744 
Ar 15.6581 4.51721 6.201 
Ar 16.0478 8.28796 8.33402 
Ar 19.0618 2.9095 7.52987 
Ar 19.6928 7.39471 7.45436 
Ar 22.8021 0.978846 6.73563 
Ar 23.1015 5.43209 6.99945 
Ar 25.4137 3.00012 8.13013 
Ar 27.3619 6.54743 9.05052 
Ar 29.0844 3.54463 7.59174 
Ar 32.6944 8.14459 10.0482 
Ar 32.8047 4.13494 6.79313 
Ar 35.9385 8.8877 10.7986 
Ar 4.64653 10.9075 8.03565 
Ar 6.02281 13.6113 5.46508 
Ar 7.78537 10.4215 6.01626 
Ar 9.96911 14.1107 8.93397 
Ar 11.6976 10.0817 7.2533 
Ar 13.8821 15.0299 8.72183 
Ar 14.3798 11.2252 9.2788 
Ar 17.128 15.0567 7.28795 
Ar 18.4051 10.9599 7.07625 
Ar 20.7076 15.8461 7.46138 
Ar 22.0038 11.9965 5.88179 
Ar 24.2899 14.5386 6.56196 
Ar 25.4408 9.89779 7.88268 
Ar 27.9494 16.1247 5.94995 
Ar 29.1323 9.40419 7.48233 
Ar 31.5947 15.3234 6.17523 
Ar 32.6707 11.0075 6.13099 
Ar 35.2039 14.186 6.40303 
Ar 4.48755 17.0726 5.0082 
Ar 4.82206 18.8412 8.46336 
Ar 7.15517 16.3016 7.70799 
Ar 8.50315 20.4739 7.43551 
Ar 10.822 17.3845 7.53003 
Ar 13.3986 22.7157 5.28217 
Ar 13.4522 19.5632 7.34168 
Ar 16.5567 21.8383 6.23493 
Ar 18.5289 18.6186 6.69827 
Ar 20.7627 22.1363 7.5853 
Ar 22.7838 19.5478 8.85011 
Ar 24.6367 22.2807 6.05269 
Ar 24.8542 17.8385 5.23876 
Ar 27.7858 21.4241 8.43889 
Ar 30.7395 18.4813 7.45089 
Ar 31.914 21.485 5.40936 
Ar 34.4414 18.7965 8.11538 
Ar 34.7916 22.7453 7.23055 
Ar 4.64435 23.8627 9.58791 
Ar 5.92194 27.935 6.6842 
Ar 7.91778 25.5471 8.88298 
Ar 9.73001 29.1806 4.52611 
Ar 10.9018 23.5591 8.24174 
Ar 13.4764 30.2934 4.71885 
Ar 14.2118 25.8234 7.65291 
Ar 16.7046 28.813 6.462 
Ar 18.3444 24.9854 6.93801 
Ar 20.2317 27.8962 5.72653 
Ar 22.4991 25.3166 6.55386 
Ar 23.9251 28.3929 9.81232 
Ar 27.2745 25.7206 7.59278 
Ar 28.8504 29.2632 9.271 
Ar 31.5821 25.6515 6.5522 
Ar 31.5163 29.8081 5.84031 
Ar 35.386 27.4247 7.16077 
Ar 37.0551 30.5698 8.56328 
