216
#
Ar -1.4972 1.74375 -2.61386 
Ar 1.35136 1.14685 2.02423 
Ar -0.101127 -1.18488 -0.387519 
Ar 4.5127 2.91912 1.96535 
Ar 6.71039 -1.25138 2.1848 
Ar 9.41219 2.15709 -0.9993 
Ar 8.93193 -0.385268 -4.18415 
Ar 12.6409 2.54214 0.813176 
Ar 11.972 0.085782 -2.23961 
Ar 18.5408 1.57698 2.76022 
Ar 15.8263 0.810584 0.0941241 
Ar 21.3582 5.19561 -2.62315 
Ar 21.4574 1.60319 -1.59666 
Ar 25.4848 3.47365 0.26454 
Ar 25.928 -0.488584 2.07539 
Ar 28.1905 2.04707 -1.53944 
Ar 30.1254 0.290463 1.37231 
Ar 31.044 3.7307 0.627573 
Ar 2.7753 8.19256 5.78339 
Ar 1.80606 9.03657 2.48808 
Ar 1.62603 5.0784 1.16367 
Ar 5.8534 12.9172 -1.22509 
Ar 6.00409 4.16912 -2.3449 
Ar 10.4036 9.53917 -2.89778 
Ar 10.3242 5.57541 -1.7064 
Ar 14.1518 11.1731 -0.868344 
Ar 12.7762 7.77955 -0.544539 
Ar 16.3571 8.28818 1.15197 
Ar 19.5661 7.63568 -0.529774 
Ar 20.9895 12.0381 -0.358566 
Ar 22.3775 9.59101 -2.18574 
Ar 24.6644 12.6211 0.377036 
Ar 26.2542 6.61504 2.58057 
Ar 28.4209 13.9329 -2.42941 
Ar 27.7169 9.71672 0.112244 
Ar 31.5937 12.387 0.313675 
Ar 1.80873 13.7074 -0.0726047 
Ar 1.88951 17.4849 2.09729 
Ar 3.45898 15.9048 -2.30252 
Ar 4.82788 20.8018 2.68985 
Ar 5.17284 16.9694 0.919663 
Ar 8.32569 18.8973 0.610213 
Ar 13.2355 15.7729 1.18819 
Ar 10.6417 17.5697 -1.80035 
Ar 16.5382 12.8685 1.06081 
Ar 14.8301 19.101 -0.244068 
Ar 20.1736 15.225 0.571198 
Ar 19.0435 17.4244 -1.83104 
Ar 23.4479 16.2187 -1.38875 
Ar 23.1273 18.9185 2.07245 
Ar 27.2301 16.6733 0.548734 
Ar 25.0656 19.0094 -1.06348 
Ar 28.117 13.3757 1.28862 
Ar 30.0389 19.0627 0.850303 
Ar -1.93255 21.4886 -2.77963 
Ar -0.236564 24.4636 0.0249669 
Ar 3.64557 22.813 -0.685038 
Ar 6.03601 24.8572 3.90763 
Ar 7.64028 22.6098 0.66548 
Ar 9.32633 25.2708 2.14293 
Ar 10.7718 21.0528 -0.502511 
Ar 10.9867 24.3477 -1.22654 
Ar 14.1255 22.8353 -1.47951 
Ar 18.7479 23.1868 1.39717 
Ar 17.9118 21.0651 -1.75647 
Ar 18.0261 27.275 0.658497 
Ar 21.4219 24.7467 2.77632 
Ar 22.6596 27.3468 -0.217371 
Ar 24.3458 22.4064 -1.04822 
Ar 25.8363 25.6245 0.417119 
Ar 27.5312 21.713 0.292583 
Ar 28.4563 23.7739 -3.78591 
Ar 0.619345 1.12041 5.75262 
Ar 2.60933 4.34687 4.75544 
Ar 4.46899 1.6819 6.73835 
Ar 4.80998 6.76763 2.95947 
Ar 8.0703 4.61602 1.31148 
Ar 12.5717 5.87376 2.67992 
Ar 15.0659 2.44746 3.48874 
Ar 15.3876 4.71771 0.631642 
Ar 15.7665 -0.844343 3.73714 
Ar 18.1007 5.33121 3.0373 
Ar 21.1053 3.41468 4.59504 
Ar 21.7314 4.56153 1.06127 
Ar 24.7675 3.43016 3.88957 
Ar 24.1824 7.34835 6.24206 
Ar 28.2883 3.53911 3.27878 
Ar 30.2622 7.18618 2.75026 
Ar 31.9965 4.44051 3.98784 
Ar 29.6644 7.41908 6.45971 
Ar 2.79792 6.42189 9.31154 
Ar 5.08565 10.1421 3.85772 
Ar 8.12647 12.5133 2.27604 
Ar 10.6691 12.9402 -0.304495 
Ar 7.72036 9.31113 0.762131 
Ar 11.4378 13.4685 4.05539 
Ar 12.5099 9.79138 2.55091 
Ar 17.163 8.98397 4.75462 
Ar 15.416 5.99016 5.28037 
Ar 18.7011 13.0645 4.6288 
Ar 19.3633 10.5509 2.09857 
Ar 24.6254 6.74728 -0.804763 
Ar 24.3607 9.63395 2.25039 
Ar 26.7868 13.1519 4.92402 
Ar 28 10.0692 3.94012 
Ar 30.5109 13.7751 5.15872 
Ar 31.8519 10.9459 3.64523 
Ar 34.4627 13.8859 4.00538 
Ar -0.144612 17.0622 6.09714 
Ar 2.31602 19.9352 5.32696 
Ar 4.45567 13.6592 2.03611 
Ar 7.18684 17.8055 3.66192 
Ar 9.5982 15.9117 1.69972 
Ar 10.7545 19.6405 2.7417 
Ar 15.53 14.7653 4.30462 
Ar 14.1668 18.6225 3.75892 
Ar 17.067 16.9551 1.73042 
Ar 19.6584 19.7645 1.75859 
Ar 20.4782 16.5852 4.04039 
Ar 20.63 21.3923 5.11647 
Ar 22.1633 13.0968 3.36068 
Ar 25.9532 19.9934 3.85338 
Ar 24.8594 15.7524 3.18399 
Ar 30.4037 20.2539 4.41099 
Ar 31.7992 15.5529 2.19977 
Ar 32.8778 20.4786 1.87674 
Ar 2.13537 23.1813 2.92643 
Ar 3.57134 27.905 4.64795 
Ar 5.44094 22.2725 6.81642 
Ar 6.0111 25.2598 9.34972 
Ar 7.89164 21.4355 4.32147 
Ar 11.7355 28.3069 1.56665 
Ar 8.8998 25.2928 6.6305 
Ar 14.1 26.1501 -0.0914673 
Ar 15.8477 24.718 3.33354 
Ar 20.457 28.3814 4.72184 
Ar 18.8613 24.6532 5.4861 
Ar 22.9489 30.285 2.2718 
Ar 24.2211 26.4903 4.70866 
Ar 26.9001 29.9236 6.61362 
Ar 27.2427 24.0276 3.77997 
Ar 28.2795 27.449 4.43462 
Ar 29.3274 25.4513 1.29846 
Ar 33.099 27.2015 3.27483 
Ar 4.07762 9.59255 10.6781 
Ar 7.19352 7.4017 6.40992 
Ar 6.84512 3.6425 4.5033 
Ar 11.0347 6.67838 5.67201 
Ar 10.0004 3.33629 6.29894 
Ar 13.4565 4.18359 7.80403 
Ar 17.9281 2.30433 6.34016 
Ar 15.7172 7.28125 8.40725 
Ar 18.5284 3.59191 10.0313 
Ar 19.1885 6.73437 6.12608 
Ar 23.3886 0.889103 5.95671 
Ar 21.1141 7.55635 3.12016 
Ar 24.7428 3.87103 7.67029 
Ar 28.1949 5.85621 10.2871 
Ar 28.3104 4.14861 6.77632 
Ar 31.7848 7.15597 10.6903 
Ar 32.3498 5.45822 7.61812 
Ar 33.8792 9.46818 8.9864 
Ar 6.7185 10.7299 7.07091 
Ar 6.01381 13.7299 5.4166 
Ar 9.46666 9.83708 4.07898 
Ar 9.80528 13.1834 7.32911 
Ar 13.6687 9.60217 5.96681 
Ar 13.0885 14.9007 7.35159 
Ar 18.1147 10.7907 8.31334 
Ar 16.0354 15.8226 9.00935 
Ar 21.0006 10.4464 5.47402 
Ar 20.3843 13.7513 7.66431 
Ar 24.2996 12.4571 7.4569 
Ar 26.1188 16.4774 7.35831 
Ar 26.7806 9.37618 7.50358 
Ar 28.7478 16.6797 4.05869 
Ar 30.3491 10.8936 7.65349 
Ar 32.6853 16.5367 9.92502 
Ar 32.5179 13.3927 7.97351 
Ar 35.9487 11.9629 6.81045 
Ar 4.32504 16.6486 5.06635 
Ar 5.70239 19.2837 9.12378 
Ar 7.08942 16.0741 8.07821 
Ar 8.32937 19.1788 6.89875 
Ar 10.2342 16.4686 5.65424 
Ar 12.7728 22.732 2.47495 
Ar 13.8703 18.4998 7.29257 
Ar 16.4482 21.355 5.6233 
Ar 17.364 17.4669 6.07703 
Ar 21.1045 23.9091 9.42006 
Ar 21.3064 20.2219 8.91583 
Ar 23.5087 23.3252 6.30937 
Ar 23.2651 18.495 6.10506 
Ar 26.3803 21.0929 7.35481 
Ar 29.335 18.1944 8.20139 
Ar 31.5969 24.0434 3.90345 
Ar 35.0087 19.3917 10.139 
Ar 34.7714 24.4762 7.29718 
Ar 3.02451 26.505 11.1506 
Ar 5.24063 29.2735 10 
Ar 9.11617 27.5419 10.4223 
Ar 9.56202 30.9638 2.97226 
Ar 10.9618 21.8528 6.66148 
Ar 12.455 29.0834 4.95434 
Ar 13.0716 25.8763 6.50859 
Ar 15.2733 28.4721 7.53984 
Ar 16.8492 25.2236 8.54642 
Ar 18.6485 28.4085 8.29514 
Ar 21.7309 26.4111 7.06889 
Ar 24.9335 29.5781 9.46921 
Ar 26.0354 26.4456 8.05479 
Ar 29.0039 27.6203 9.51572 
Ar 31.1533 26.4602 6.98862 
Ar 30.1457 30.1858 5.03647 
Ar 35.1006 28.3475 8.00446 
Ar 35.4936 31.7036 9.48556 
