216
#
Ar -1.64211 1.01352 -2.00989 
Ar 0.982004 1.57826 2.14381 
Ar 1.40145 -0.770944 -1.42466 
Ar 4.76804 1.46036 1.35109 
Ar 7.37006 -1.86108 2.01891 
Ar 9.69816 1.59474 -0.0750675 
Ar 8.2968 -0.0390914 -3.95164 
Ar 12.7499 3.73663 -0.312261 
Ar 12.4413 -0.382047 -2.67793 
Ar 18.3708 2.81237 1.247 
Ar 15.6288 1.46249 -0.69696 
Ar 22.2813 4.72213 -1.86686 
Ar 21.3638 0.968263 0.0851484 
Ar 25.0782 2.70276 1.02426 
Ar 27.4621 -0.0237981 1.88971 
Ar 28.7262 3.11772 0.0758277 
Ar 30.6827 -0.969354 0.997029 
Ar 32.0643 4.14123 -0.10173 
Ar 1.19779 7.63936 4.7407 
Ar 1.68608 11.0763 1.83115 
Ar 1.94313 5.81036 1.55551 
Ar 5.55229 12.1988 0.129521 
Ar 6.82786 3.59734 -1.85356 
Ar 8.46676 9.01368 -2.75496 
Ar 9.62445 5.47824 -1.13283 
Ar 12.0681 11.2309 -0.295731 
Ar 13.0302 7.65516 -0.170184 
Ar 17.3633 10.7951 2.35374 
Ar 19.2196 7.00441 0.280812 
Ar 19.9849 11.3061 -0.698058 
Ar 22.4689 8.84301 -2.44889 
Ar 24.9571 12.0599 0.979279 
Ar 25.734 6.40839 2.7844 
Ar 28.1455 13.5976 -2.86903 
Ar 28.0581 8.76986 0.180906 
Ar 30.2586 11.8018 -0.471791 
Ar 1.62935 13.4807 -0.809658 
Ar 0.280488 17.3096 0.939834 
Ar 3.10642 17.0093 -1.13823 
Ar 3.39863 18.6377 2.34301 
Ar 6.33722 15.9439 1.86562 
Ar 8.45453 19.0953 1.23062 
Ar 11.9987 15.0007 0.72983 
Ar 11.3443 18.3849 -0.804517 
Ar 15.1445 13.6193 2.17625 
Ar 16.3186 18.7903 -0.921798 
Ar 18.8251 14.9368 1.0257 
Ar 19.7029 17.6603 -1.28615 
Ar 22.3073 14.7163 -0.390771 
Ar 22.7191 19.6893 0.57931 
Ar 29.4541 15.3806 0.346385 
Ar 26.3966 18.8282 -0.916378 
Ar 28.2585 12.6978 2.00194 
Ar 30.0324 18.8628 -0.126206 
Ar -1.25509 22.9149 -2.61818 
Ar 0.328493 25.5235 -0.232871 
Ar 2.9087 22.1246 -0.22777 
Ar 4.99425 23.8009 2.59759 
Ar 6.99283 22.8657 -0.520706 
Ar 9.90155 25.0933 2.82317 
Ar 10.5614 21.8234 0.99324 
Ar 12.1116 24.6555 -0.672922 
Ar 14.7411 22.0512 -1.50332 
Ar 18.1884 23.726 0.258432 
Ar 18.6857 21.297 -3.05994 
Ar 18.429 28.2993 -1.05766 
Ar 21.6115 23.1401 1.47088 
Ar 21.7831 26.3481 -0.148857 
Ar 24.8384 23.3452 -0.971537 
Ar 26.6664 26.1511 0.327413 
Ar 28.2187 22.4047 0.634221 
Ar 29.6977 26.2175 -1.4953 
Ar 2.05765 2.13543 6.18462 
Ar 3.785 4.57066 4.34762 
Ar 5.08239 0.480469 5.14692 
Ar 6.87117 5.65618 2.31933 
Ar 10.3002 4.32391 2.07369 
Ar 13.0569 6.57026 3.46309 
Ar 13.413 2.22339 2.7538 
Ar 15.667 5.23672 1.19241 
Ar 16.7957 0.986447 3.72524 
Ar 18.4533 6.77212 3.81013 
Ar 20.4221 2.1836 4.85206 
Ar 21.8984 4.419 1.68658 
Ar 23.9932 3.15987 4.43185 
Ar 26.3313 6.10297 6.42856 
Ar 27.798 3.14458 3.72231 
Ar 29.4584 6.02604 1.89021 
Ar 31.6863 3.86405 3.7274 
Ar 30.4968 7.22719 5.08234 
Ar 3.23758 6.593 7.5894 
Ar 3.02469 10.5062 5.30213 
Ar 4.39399 8.46061 2.79223 
Ar 8.73664 12.8145 1.88916 
Ar 10.0388 7.83412 2.10855 
Ar 11.3716 13.3449 4.3476 
Ar 12.406 10.3364 3.43619 
Ar 15.2334 12.1851 5.81689 
Ar 15.5301 8.41799 5.18009 
Ar 17.8388 14.6628 4.59266 
Ar 20.6827 9.84299 2.71777 
Ar 23.2089 7.85721 0.747521 
Ar 23.5856 9.13327 4.91047 
Ar 25.2648 12.3195 5.06166 
Ar 28.0468 9.31948 3.69206 
Ar 30.6135 12.5767 4.82724 
Ar 31.4918 9.35282 2.39649 
Ar 32.3145 14.1842 2.12095 
Ar -0.0870438 16.1412 5.4391 
Ar 0.63844 19.931 4.24418 
Ar 3.12947 14.456 2.5675 
Ar 7.14273 18.2516 4.83551 
Ar 10.2229 16.5014 3.26318 
Ar 10.6288 20.2731 4.50085 
Ar 13.6788 16.1721 4.35182 
Ar 14.8964 21.6185 2.0877 
Ar 16.3615 17.9629 2.77531 
Ar 18.5594 21.1941 3.14043 
Ar 20.8528 16.9227 3.00335 
Ar 21.8823 20.9115 4.32653 
Ar 21.8608 13.3498 3.89592 
Ar 24.9782 21.8303 2.54843 
Ar 25.3566 15.6017 1.05934 
Ar 27.4956 19.9164 3.65853 
Ar 30.1854 17.3454 3.15426 
Ar 32.2875 21.9866 1.02024 
Ar 1.36966 24.1548 4.48214 
Ar 3.5065 27.7191 2.84969 
Ar 4.65248 21.0749 6.03932 
Ar 6.32491 25.8348 6.31244 
Ar 7.99384 22.5228 4.64262 
Ar 11.9231 28.1137 0.876117 
Ar 10.338 26.3227 6.15192 
Ar 15.4522 27.317 0.76768 
Ar 17.1437 24.6485 3.62051 
Ar 19.1632 28.0296 2.64942 
Ar 20.5455 24.117 4.65411 
Ar 22.5567 28.7681 3.32419 
Ar 24.5487 25.3731 3.21648 
Ar 25.9117 29.3134 5.22408 
Ar 27.7614 23.4632 4.25649 
Ar 28.8792 27.3581 4.40931 
Ar 30.3047 24.7317 2.12739 
Ar 32.8249 27.1403 3.36257 
Ar 5.32505 6.77166 10.2587 
Ar 6.13592 7.45274 5.65388 
Ar 7.0399 3.42302 5.23272 
Ar 9.85836 6.27295 5.63221 
Ar 10.806 2.67586 6.86746 
Ar 13.0438 6.34204 7.43878 
Ar 14.52 2.97538 7.42001 
Ar 16.6677 8.8406 9.5118 
Ar 18.2035 3.11157 8.49104 
Ar 19.0995 7.51124 7.39111 
Ar 22.969 0.868531 7.52507 
Ar 21.6925 5.62628 5.21484 
Ar 25.5745 3.27073 8.49735 
Ar 29.5264 6.02588 9.23004 
Ar 29.2236 3.13361 7.08763 
Ar 32.9519 7.51575 10.0243 
Ar 32.6639 5.13955 7.15586 
Ar 35.922 9.95866 9.08649 
Ar 5.87548 11.0806 7.1497 
Ar 7.47577 14.3207 5.17306 
Ar 8.5759 10.4566 4.92023 
Ar 9.42449 12.6439 8.36072 
Ar 11.6006 9.89436 6.76123 
Ar 13.0812 14.4251 7.27289 
Ar 16.7332 12.4596 9.13928 
Ar 16.1868 16.1424 7.8225 
Ar 19.4497 11.2889 5.93684 
Ar 19.51 14.353 8.01044 
Ar 23.0188 12.204 7.57606 
Ar 24.9046 15.6132 7.63272 
Ar 26.1161 9.50328 8.25865 
Ar 27.6922 15.3554 4.63443 
Ar 29.872 10.0842 7.54343 
Ar 31.8029 15.8721 9.00229 
Ar 33.3753 12.8131 7.08929 
Ar 36.878 13.8697 7.63246 
Ar 3.6786 17.4787 6.2034 
Ar 5.43782 19.5498 9.38375 
Ar 6.87616 16.2555 8.98382 
Ar 8.24157 20.4157 7.69558 
Ar 9.98913 16.9714 6.94265 
Ar 13.3813 25.41 2.97293 
Ar 13.7188 19.3044 7.00042 
Ar 15.6719 22.1401 5.84745 
Ar 18.1414 18.5952 5.79673 
Ar 21.3188 23.3224 8.60629 
Ar 22.6912 18.5889 7.73047 
Ar 24.4726 22.8255 6.11518 
Ar 24.5142 17.4472 3.96182 
Ar 28.0353 21.533 8.05301 
Ar 29.8646 18.2368 6.47297 
Ar 30.8845 22.392 4.89171 
Ar 34.6769 19.9329 8.11456 
Ar 35.1526 23.9896 7.75246 
Ar 4.8109 25.4623 9.69764 
Ar 6.16456 28.6732 9.81996 
Ar 9.15479 26.8312 9.67433 
Ar 10.1842 29.5026 3.62085 
Ar 10.6921 23.0213 7.04733 
Ar 13.1869 28.0823 4.58208 
Ar 13.9834 25.3469 7.23219 
Ar 16.2705 28.8888 6.74743 
Ar 17.7605 24.5553 7.41074 
Ar 19.7283 27.3128 6.61878 
Ar 23.3043 26.2786 6.75283 
Ar 24.4238 28.4613 10.1322 
Ar 26.8568 25.7442 7.60991 
Ar 27.5705 29.364 8.61854 
Ar 31.5522 25.6731 6.44607 
Ar 31.0992 29.9395 5.48054 
Ar 35.9559 27.5991 6.49084 
Ar 35.7715 32.0987 9.62631 
