216
#
Ar -0.789701 1.34616 -2.24747 
Ar 0.836365 1.22004 1.44396 
Ar -0.616533 -1.95592 -0.473538 
Ar 4.68059 2.21448 2.14248 
Ar 7.04406 -1.01137 2.54634 
Ar 8.4403 1.71116 -0.653996 
Ar 8.75653 -1.21715 -4.85928 
Ar 11.5701 2.9815 0.857848 
Ar 12.5028 -0.0372921 -1.51052 
Ar 18.1346 2.35735 2.14214 
Ar 15.929 0.695808 -0.713243 
Ar 21.4256 4.32001 -3.21809 
Ar 21.6655 1.33534 -1.38674 
Ar 25.3873 3.42924 0.330169 
Ar 26.5006 0.468663 1.51856 
Ar 28.6882 2.14928 -1.12633 
Ar 30.4251 0.0509804 2.23654 
Ar 31.3184 4.04644 0.212971 
Ar 2.57827 8.14461 5.79288 
Ar 1.68323 9.15842 2.10678 
Ar 1.17291 5.75338 1.745 
Ar 5.05505 13.3158 -1.74397 
Ar 6.63682 4.24966 -2.03743 
Ar 10.237 9.74464 -2.42902 
Ar 10.2235 5.40304 -1.80003 
Ar 14.0864 11.6212 -1.3243 
Ar 13.2395 7.45337 -1.34147 
Ar 16.2445 8.10762 1.49539 
Ar 20.0243 7.36089 -0.582227 
Ar 21.9509 12.232 -0.321841 
Ar 22.4575 9.30931 -2.42921 
Ar 25.3866 13.5292 0.548908 
Ar 26.5471 7.17431 2.65479 
Ar 28.3004 13.8249 -1.67925 
Ar 27.6204 10.5266 -0.339263 
Ar 31.114 12.02 -0.0331196 
Ar 0.847219 14.1928 0.295079 
Ar 1.19595 17.5781 2.09091 
Ar 2.58657 16.1127 -2.79676 
Ar 4.27197 19.1475 1.92793 
Ar 4.70078 16.2483 0.192968 
Ar 7.7601 18.9334 0.360802 
Ar 13.3826 15.8118 1.18924 
Ar 10.3032 16.6621 -1.53652 
Ar 17.1545 12.7281 0.996474 
Ar 14.4801 19.6419 1.40873 
Ar 20.2454 15.2451 0.696655 
Ar 19.7976 17.7089 -2.27843 
Ar 23.3817 17.034 -2.17749 
Ar 23.2892 18.6792 1.67341 
Ar 27.1073 16.6023 1.02007 
Ar 25.9508 19.3507 -1.36284 
Ar 28.4859 13.3126 2.40082 
Ar 30.1532 19.2697 1.51291 
Ar -0.361501 20.861 -2.73717 
Ar -0.991979 23.5829 -0.610329 
Ar 2.84117 23.5614 -0.559526 
Ar 5.75319 25.1578 4.18967 
Ar 7.59411 22.827 -0.544669 
Ar 9.87139 25.4281 3.18667 
Ar 11.3061 20.0303 -0.894452 
Ar 10.4311 24.7438 -1.54813 
Ar 14.2113 23 -2.01558 
Ar 18.5783 22.4944 1.96682 
Ar 17.1579 20.6086 -2.33498 
Ar 18.4708 26.1562 1.72447 
Ar 22.6358 25.1973 3.09602 
Ar 22.5008 27.0052 -0.0794605 
Ar 24.6182 23.4467 -1.56898 
Ar 25.865 25.7612 0.919999 
Ar 28.0073 22.432 -0.080154 
Ar 28.9283 24.0538 -3.90663 
Ar 1.17757 0.961601 5.50813 
Ar 3.07937 4.59056 4.72486 
Ar 4.88883 1.98459 6.93136 
Ar 4.85381 6.72329 2.08933 
Ar 8.2322 5.18872 1.46195 
Ar 12.2306 6.50614 2.1277 
Ar 13.6528 2.96748 4.44415 
Ar 15.287 4.59322 0.874454 
Ar 15.897 -0.742251 3.3514 
Ar 18.3073 5.92414 3.10141 
Ar 21.17 3.85072 4.39864 
Ar 21.5341 4.05034 0.882548 
Ar 24.6463 3.63282 4.00481 
Ar 23.1461 6.78699 6.12861 
Ar 28.5156 3.27806 2.52812 
Ar 30.865 7.18293 2.79686 
Ar 31.9505 4.12157 4.30368 
Ar 29.9067 7.34627 7.04753 
Ar 4.1758 6.68311 9.80709 
Ar 5.32656 9.88862 3.89116 
Ar 8.60175 12.3428 2.41726 
Ar 11.1281 13.1668 -0.375875 
Ar 8.17123 8.6496 0.81492 
Ar 11.5111 13.1737 3.98645 
Ar 12.8206 10.495 2.48959 
Ar 16.6299 9.82587 4.5057 
Ar 15.0555 6.49312 4.83705 
Ar 18.66 13.3455 4.23978 
Ar 19.4847 10.2092 2.20074 
Ar 24.421 6.87197 -0.933242 
Ar 24.8012 10.3356 2.0244 
Ar 26.5984 13.2498 5.56988 
Ar 27.8035 9.99181 4.04696 
Ar 30.5581 14.1062 5.6147 
Ar 31.5044 11.0134 3.98264 
Ar 34.3756 13.2582 4.40448 
Ar -0.744778 17.2336 5.08755 
Ar 2.04267 20.4996 5.64952 
Ar 4.5002 13.14 2.26345 
Ar 6.65466 17.9509 4.54197 
Ar 9.3772 16.1431 1.84774 
Ar 11.2112 19.5583 3.22762 
Ar 15.1493 13.8256 4.75825 
Ar 14.2876 17.8505 4.47715 
Ar 17.0959 16.5992 1.90686 
Ar 19.4627 19.1955 0.926293 
Ar 21.1658 16.8882 4.15525 
Ar 20.4285 20.3501 4.60622 
Ar 22.258 12.7325 3.31143 
Ar 26.4611 19.5512 2.53995 
Ar 24.6323 15.983 3.73975 
Ar 30.0455 20.5526 4.95967 
Ar 30.9436 15.476 1.80894 
Ar 33.4162 21.0866 2.36331 
Ar 1.77755 24.0528 2.97591 
Ar 3.53937 28.0915 4.4895 
Ar 5.28438 22.6513 7.83672 
Ar 5.19004 26.0708 8.93431 
Ar 8.09043 21.6039 3.85728 
Ar 11.6162 28.1924 1.65682 
Ar 8.24083 24.7138 6.6623 
Ar 14.7165 26.0991 -0.0213948 
Ar 14.8458 24.6027 3.59849 
Ar 20.0619 28.0639 4.18271 
Ar 19.2215 24.9163 5.42993 
Ar 22.3758 30.2278 2.29498 
Ar 24.8577 27.8138 3.93562 
Ar 26.8037 29.953 6.10424 
Ar 26.8358 22.9488 3.64651 
Ar 28.473 26.6613 4.6435 
Ar 29.844 25.9377 1.51828 
Ar 32.7713 27.1096 3.23734 
Ar 4.25628 10.128 11.0071 
Ar 8.10411 6.77105 6.52167 
Ar 6.473 4.10877 4.42595 
Ar 11.7089 6.64785 5.81716 
Ar 9.02944 2.28125 6.58576 
Ar 14.6124 3.26572 8.32429 
Ar 18.1104 2.4077 6.25159 
Ar 16.7309 6.75648 9.2028 
Ar 18.4059 3.68434 9.86794 
Ar 19.2856 6.94204 6.29835 
Ar 22.8736 0.826873 6.19817 
Ar 22.2348 7.62179 2.25642 
Ar 25.1281 3.54907 7.73373 
Ar 28.0231 6.29782 10.1822 
Ar 28.745 3.92397 6.50256 
Ar 31.7703 7.28625 10.2101 
Ar 33.2284 4.87112 7.621 
Ar 34.042 9.78639 9.60183 
Ar 6.33843 9.72222 7.93566 
Ar 5.60214 13.7043 5.64203 
Ar 8.8365 9.85998 4.9462 
Ar 8.98355 13.0277 6.63918 
Ar 13.7883 9.62599 6.9742 
Ar 13.024 14.5198 7.51467 
Ar 17.6189 11.28 7.64466 
Ar 15.9743 15.3285 9.38696 
Ar 20.8067 10.165 5.35382 
Ar 20.1231 14.3193 7.19306 
Ar 23.7821 13.0859 7.81495 
Ar 26.3853 16.542 7.15374 
Ar 26.0122 8.90596 6.83397 
Ar 28.8844 17.1075 4.27383 
Ar 29.9682 11.159 7.22779 
Ar 32.2568 17.4666 9.58665 
Ar 33.0372 13.798 8.04097 
Ar 36.1863 11.381 6.97462 
Ar 3.34258 16.2417 4.67523 
Ar 4.97809 18.8132 7.93145 
Ar 7.23346 15.984 8.00648 
Ar 8.83659 19.5363 7.45897 
Ar 10.0572 16.3338 5.68394 
Ar 12.4821 22.8294 1.08835 
Ar 13.8389 19.2142 7.64834 
Ar 16.6415 21.3393 5.13318 
Ar 17.5492 16.8551 5.75544 
Ar 20.0239 24.2123 10.238 
Ar 22.301 20.3247 9.51799 
Ar 24.0606 23.3641 6.01335 
Ar 23.6469 19.3817 5.84672 
Ar 26.8757 20.3337 6.32002 
Ar 28.7786 17.8364 9.18709 
Ar 31.6156 23.6228 4.1542 
Ar 35.3213 19.6653 9.93876 
Ar 33.9274 24.4057 6.97234 
Ar 3.02898 27.2516 11.9915 
Ar 5.09346 29.5229 9.928 
Ar 8.21121 27.4978 10.3741 
Ar 9.25534 30.9355 3.16211 
Ar 11.6434 21.6835 6.54463 
Ar 12.4689 29.2007 5.82436 
Ar 13.0308 25.2319 6.41921 
Ar 16.143 28.2859 6.95607 
Ar 16.9233 24.9939 8.52088 
Ar 19.0238 28.2609 8.85623 
Ar 22.0248 26.7919 7.09279 
Ar 24.9304 29.3315 9.16879 
Ar 25.5161 26.2085 7.62916 
Ar 28.4375 27.7461 9.00597 
Ar 31.5878 27.4595 7.03925 
Ar 30.5047 30.3465 5.6682 
Ar 35.0448 27.8108 8.2598 
Ar 35.6753 32.0674 9.79087 
