216
#
Ar -0.24401 0.0664181 -0.0955974 
Ar 2.10472 3.31262 0.408429 
Ar 3.4417 -0.0691985 0.019647 
Ar 5.58179 2.52891 -0.0894016 
Ar 7.64844 -0.414543 0.412132 
Ar 8.85656 3.59416 0.416964 
Ar 11.3729 -0.328766 -0.267719 
Ar 12.4711 3.89429 0.250871 
Ar 14.7791 -0.468065 0.741928 
Ar 16.6941 4.10258 -0.0955774 
Ar 18.3418 -0.525985 0.079512 
Ar 20.309 4.2174 0.361943 
Ar 21.9494 -0.0242299 0.109135 
Ar 23.8619 3.81219 0.636516 
Ar 25.739 0.328869 0.199452 
Ar 27.629 3.62736 -0.591631 
Ar 29.3028 0.484417 -0.132132 
Ar 31.4093 3.55276 -0.498193 
Ar -0.163327 7.13726 0.515033 
Ar 1.59679 11.1599 -0.33149 
Ar 3.41522 7.05421 0.197657 
Ar 5.24773 10.7514 -0.301918 
Ar 7.20233 6.76942 -0.216945 
Ar 9.16647 11.3041 -0.0994673 
Ar 10.9966 7.85218 0.410005 
Ar 12.7634 11.2791 0.0583747 
Ar 14.674 7.50449 -0.0760561 
Ar 16.3546 10.6152 -0.203179 
Ar 18.414 7.32822 0.108513 
Ar 20.2819 11.0519 -0.177575 
Ar 22.0006 8.28656 -0.546082 
Ar 24.1789 11.526 -0.38777 
Ar 25.8966 7.01599 -0.148564 
Ar 27.7078 11.3211 -0.0909353 
Ar 29.2904 8.15927 0.0937215 
Ar 31.1542 11.1582 0.110477 
Ar 0.0328793 14.7243 -0.501752 
Ar 1.705 18.2924 -0.511284 
Ar 3.61432 14.7438 -0.264069 
Ar 5.55029 18.6017 0.116742 
Ar 7.41723 15.0579 -0.269498 
Ar 9.51198 17.9128 -0.198186 
Ar 11.0899 14.5856 0.125708 
Ar 12.94 17.7973 0.306778 
Ar 14.8938 13.9369 0.0350529 
Ar 16.4536 18.1632 0.0473489 
Ar 18.4495 14.8251 -0.0687228 
Ar 19.9744 18.0656 0.573287 
Ar 21.9553 15.2484 -0.351385 
Ar 23.6104 18.2064 0.377607 
Ar 25.8537 14.6863 0.0134501 
Ar 26.9063 18.2989 -0.431382 
Ar 29.6264 14.1648 0.520149 
Ar 31.1803 18.1233 0.505801 
Ar -0.00687609 22.0294 -0.327778 
Ar 2.20234 25.6917 -0.112026 
Ar 3.58137 21.5467 -0.26313 
Ar 5.64781 25.6357 0.330464 
Ar 7.33405 22.2392 0.0250632 
Ar 9.03401 25.3059 -0.1333 
Ar 11.1439 21.5339 -0.165271 
Ar 12.479 25.4167 0.628317 
Ar 14.5176 21.4994 -0.597928 
Ar 16.2256 25.9581 -0.352973 
Ar 17.903 22.5936 0.118393 
Ar 19.9332 25.1278 -0.61233 
Ar 21.9688 21.8708 -0.319779 
Ar 23.6412 25.8008 0.39834 
Ar 25.6464 22.3107 0.17065 
Ar 27.5715 25.7879 -0.076045 
Ar 29.3246 22.2874 0.129594 
Ar 31.4098 25.7092 0.172939 
Ar 2.04239 1.48067 3.8089 
Ar 3.22526 4.94568 3.82591 
Ar 5.49438 1.59122 3.73087 
Ar 7.21048 5.65714 3.86504 
Ar 9.22388 1.93351 3.57452 
Ar 10.8736 5.45119 3.23777 
Ar 13.2038 2.29787 3.85148 
Ar 14.9743 5.79205 3.12079 
Ar 16.734 1.71216 3.61915 
Ar 18.5882 5.47274 3.3982 
Ar 20.3083 1.68119 3.57495 
Ar 22.1178 6.10892 4.04416 
Ar 23.9349 1.87473 4.05785 
Ar 25.9294 5.50322 4.24278 
Ar 27.5183 1.47665 3.37933 
Ar 29.4543 5.50132 3.24484 
Ar 31.5352 1.83154 3.67286 
Ar 32.8836 5.92195 3.92852 
Ar 2.07571 9.21037 4.36207 
Ar 3.3254 12.7953 3.74708 
Ar 5.6855 8.89049 4.17659 
Ar 7.37419 12.975 3.9767 
Ar 9.07342 9.21578 4.49038 
Ar 11.5531 13.1865 3.5141 
Ar 12.7119 9.2754 3.44153 
Ar 14.9603 13.0165 3.64483 
Ar 16.5573 10.1214 3.99966 
Ar 18.574 13.0272 4.13563 
Ar 20.1125 9.28615 3.49696 
Ar 22.163 12.9369 3.44106 
Ar 23.9517 8.90105 3.57429 
Ar 25.7305 13.0264 4.4112 
Ar 27.5828 8.5629 3.57875 
Ar 29.2644 12.7749 4.06417 
Ar 31.2768 9.67862 3.50626 
Ar 32.66 13.2384 3.38693 
Ar 1.51637 16.0341 4.1181 
Ar 3.61506 20.0318 3.20127 
Ar 5.23181 16.5827 3.47024 
Ar 7.07469 20.5576 4.33256 
Ar 8.89537 16.5313 3.02843 
Ar 10.9846 19.6211 3.90853 
Ar 12.4828 16.6145 4.70913 
Ar 14.5721 20.591 3.63928 
Ar 16.1691 16.0997 3.77338 
Ar 18.3549 19.8342 3.44913 
Ar 19.8639 16.6666 3.69955 
Ar 22.1255 19.6596 4.13071 
Ar 23.6911 16.3 3.23257 
Ar 25.9689 20.5564 3.41588 
Ar 27.3247 16.8128 3.23595 
Ar 29.5548 19.5794 4.20241 
Ar 30.8994 16.467 4.22678 
Ar 33.0175 20.586 3.04523 
Ar 1.75066 23.8805 2.90579 
Ar 3.30398 27.3422 3.4703 
Ar 5.01586 23.9118 3.59467 
Ar 7.59857 27.4533 3.54809 
Ar 8.58276 23.6298 3.3945 
Ar 11.3268 27.6468 3.39336 
Ar 12.2687 23.9009 3.89238 
Ar 14.9105 27.4562 3.77756 
Ar 16.4109 23.4803 2.94523 
Ar 18.453 27.7398 3.31655 
Ar 20.3543 23.8567 4.37455 
Ar 22.0803 27.8325 4.01647 
Ar 23.8671 24.2052 3.88275 
Ar 25.7007 27.8072 4.12502 
Ar 27.8617 23.6005 3.67016 
Ar 29.345 27.2606 3.42965 
Ar 31.32 24.0803 3.14145 
Ar 32.9807 27.5144 3.36518 
Ar 3.88414 3.79599 7.49298 
Ar 5.3516 7.76688 7.53938 
Ar 7.31 3.44337 7.17334 
Ar 8.80411 6.7123 6.89873 
Ar 10.649 3.43167 6.95554 
Ar 12.4569 6.8372 6.28717 
Ar 14.4088 3.46838 7.07687 
Ar 16.6901 8.00882 7.22161 
Ar 18.7959 3.6211 7.58932 
Ar 20.4461 7.06728 6.75382 
Ar 22.2589 3.80363 7.55855 
Ar 24.046 7.22726 7.99046 
Ar 25.6683 3.6708 7.37931 
Ar 27.5914 7.62388 7.4567 
Ar 29.0345 3.91344 6.43362 
Ar 31.3083 7.11 7.71361 
Ar 32.8332 3.62391 7.45242 
Ar 34.8839 7.17571 7.54085 
Ar 3.23924 11.1731 7.47698 
Ar 5.91202 15.0144 7.08958 
Ar 7.09677 11.0443 7.20934 
Ar 9.56202 14.3484 7.46789 
Ar 11.3592 10.7344 7.01145 
Ar 13.0809 15.1615 7.70876 
Ar 14.8613 11.1667 6.64229 
Ar 16.6192 14.7412 6.81797 
Ar 18.2345 11.7876 7.45021 
Ar 20.286 14.9609 6.84566 
Ar 21.8804 11.1234 7.5126 
Ar 23.836 15.0615 7.40987 
Ar 25.3503 10.4622 6.6176 
Ar 27.4884 15.0939 7.13413 
Ar 28.9876 10.728 7.06785 
Ar 30.8447 14.5356 7.08792 
Ar 32.671 11.3299 6.81681 
Ar 34.5935 14.6308 7.38671 
Ar 3.76008 18.2593 7.60886 
Ar 5.92639 22.0497 7.02881 
Ar 7.39331 18.1704 8.00085 
Ar 9.43781 21.3576 7.49247 
Ar 11.1506 18.2534 7.60768 
Ar 12.9545 21.8606 7.25189 
Ar 14.7371 18.4503 7.36722 
Ar 16.7311 21.5421 7.80255 
Ar 18.2073 17.9691 7.26846 
Ar 20.2736 22.2135 7.79936 
Ar 21.7828 18.0775 7.33429 
Ar 24.1462 22.0425 7.10215 
Ar 25.6534 18.1022 6.8376 
Ar 27.6025 22.4102 7.49032 
Ar 29.3491 18.3401 7.56556 
Ar 31.1472 22.5556 7.09895 
Ar 32.9447 18.4765 7.35831 
Ar 34.8321 21.3591 7.61731 
Ar 3.73449 26.5395 7.54144 
Ar 5.74375 29.2738 7.7598 
Ar 7.67057 25.5723 7.16754 
Ar 9.15743 29.1562 6.76211 
Ar 11.2372 25.3677 8.15145 
Ar 12.7371 29.4327 6.77438 
Ar 14.7735 25.5226 7.45177 
Ar 16.3565 30.0091 7.01713 
Ar 18.2572 25.3094 7.49689 
Ar 19.7471 28.7842 7.66987 
Ar 21.7056 25.4275 7.02117 
Ar 24.1433 29.3973 7.87082 
Ar 25.7524 25.7088 7.5161 
Ar 27.5917 29.5444 7.73569 
Ar 29.3079 25.5042 7.36922 
Ar 31.2228 29.4411 7.044 
Ar 32.7706 25.6083 7.14527 
Ar 34.924 29.7791 7.86958 
