216
#
Ar -1.63153 1.02038 -2.04032 
Ar 0.944704 1.61018 2.18869 
Ar 1.36842 -0.769943 -1.39721 
Ar 4.7517 1.38347 1.38895 
Ar 7.31693 -1.78399 2.07249 
Ar 9.62775 1.62059 0.0125134 
Ar 8.25247 -0.00925866 -3.97014 
Ar 12.7174 3.78118 -0.282954 
Ar 12.3796 -0.510025 -2.65012 
Ar 18.3808 2.60937 1.30071 
Ar 15.5869 1.40393 -0.612989 
Ar 22.2324 4.61019 -2.01807 
Ar 21.4402 0.882121 0.00259562 
Ar 25.1177 2.58863 1.12552 
Ar 27.5155 -0.00715325 1.91578 
Ar 28.6345 3.1436 0.131833 
Ar 30.6422 -0.987179 0.97393 
Ar 32.0942 3.97532 -0.0996131 
Ar 1.18031 7.57116 4.81524 
Ar 1.73691 11.092 1.81801 
Ar 1.94568 5.88571 1.53967 
Ar 5.6644 12.2693 0.143616 
Ar 6.77416 3.65172 -1.91076 
Ar 8.53024 9.06526 -2.76477 
Ar 9.59048 5.45286 -1.20409 
Ar 12.1083 11.2969 -0.297249 
Ar 12.9706 7.59797 -0.196739 
Ar 17.3721 10.7707 2.26892 
Ar 19.2565 6.95643 0.280213 
Ar 19.9976 11.4209 -0.690137 
Ar 22.4783 8.83241 -2.5198 
Ar 24.8543 12.0172 1.05994 
Ar 25.8225 6.40788 2.74996 
Ar 28.131 13.6161 -2.9417 
Ar 28.1014 8.74719 0.166043 
Ar 30.3353 11.8695 -0.483787 
Ar 1.71538 13.4979 -0.737941 
Ar 0.260468 17.2919 0.962161 
Ar 2.94529 16.9688 -1.22413 
Ar 3.38779 18.6553 2.36034 
Ar 6.29929 15.9667 1.9012 
Ar 8.45814 19.0973 1.18273 
Ar 12.0719 14.8966 0.763153 
Ar 11.2802 18.3803 -0.833099 
Ar 15.1389 13.571 2.09817 
Ar 16.2877 18.8629 -0.978437 
Ar 18.8638 14.8859 1.10815 
Ar 19.7246 17.6708 -1.26244 
Ar 22.2845 14.7284 -0.459287 
Ar 22.673 19.7137 0.524763 
Ar 29.369 15.3363 0.399294 
Ar 26.4189 18.7614 -0.887369 
Ar 28.2568 12.6653 2.06598 
Ar 30.0247 18.9574 -0.142797 
Ar -1.30715 22.9236 -2.56262 
Ar 0.388712 25.5484 -0.202762 
Ar 2.87495 22.0649 -0.295663 
Ar 5.06942 23.9183 2.57755 
Ar 7.12063 22.9247 -0.504229 
Ar 9.90113 25.0609 2.83307 
Ar 10.6457 21.9069 1.01716 
Ar 12.0833 24.6482 -0.724475 
Ar 14.802 22.0218 -1.53645 
Ar 18.1116 23.6473 0.269822 
Ar 18.684 21.1896 -3.08256 
Ar 18.4342 28.3091 -0.98673 
Ar 21.6286 23.2636 1.54032 
Ar 21.8074 26.388 -0.262376 
Ar 24.9112 23.3816 -0.928376 
Ar 26.5953 26.1603 0.29484 
Ar 28.2616 22.3578 0.682532 
Ar 29.6516 26.2264 -1.42967 
Ar 1.9716 2.04596 6.15865 
Ar 3.74779 4.69156 4.31988 
Ar 5.0618 0.569196 5.09782 
Ar 6.6978 5.60541 2.26201 
Ar 10.3324 4.41791 2.07398 
Ar 13.007 6.60928 3.50962 
Ar 13.4193 2.25484 2.68095 
Ar 15.6249 5.2104 1.12677 
Ar 16.6105 0.962738 3.70735 
Ar 18.4322 6.82525 3.87264 
Ar 20.5105 2.29583 4.88692 
Ar 21.9222 4.23871 1.56513 
Ar 23.9523 3.05586 4.43103 
Ar 26.3517 6.11956 6.52641 
Ar 27.7546 3.14869 3.64036 
Ar 29.5772 5.98476 1.83711 
Ar 31.7294 3.71841 3.77364 
Ar 30.5181 7.2351 5.04834 
Ar 3.18294 6.52916 7.65399 
Ar 2.98706 10.5553 5.2922 
Ar 4.52243 8.61191 2.75792 
Ar 8.74959 12.7936 1.92375 
Ar 10.0834 7.84745 2.17395 
Ar 11.3696 13.4535 4.34764 
Ar 12.3288 10.3518 3.49829 
Ar 15.3885 12.0425 5.79025 
Ar 15.5789 8.36982 5.21695 
Ar 17.8414 14.7508 4.66421 
Ar 20.6463 9.83793 2.6916 
Ar 23.2441 7.94155 0.776425 
Ar 23.5959 9.09049 4.84405 
Ar 25.1965 12.3628 5.13257 
Ar 28.0363 9.4327 3.66207 
Ar 30.5597 12.5238 4.88661 
Ar 31.4179 9.3772 2.4187 
Ar 32.4592 14.2043 2.16309 
Ar -0.129188 16.0879 5.50742 
Ar 0.500872 19.8431 4.27559 
Ar 3.16401 14.371 2.54749 
Ar 7.09044 18.2431 4.80289 
Ar 10.1529 16.6105 3.17233 
Ar 10.6415 20.2552 4.64471 
Ar 13.7398 16.1294 4.32515 
Ar 14.8757 21.706 2.13396 
Ar 16.2758 18.0176 2.71548 
Ar 18.5286 21.2102 3.05636 
Ar 20.8457 16.8599 3.00067 
Ar 21.8701 20.9081 4.20372 
Ar 21.9025 13.3776 3.91604 
Ar 24.9241 21.7905 2.52854 
Ar 25.3208 15.6445 1.06743 
Ar 27.4843 19.9192 3.6488 
Ar 30.1554 17.3501 3.10185 
Ar 32.2989 21.931 1.03163 
Ar 1.32302 24.176 4.5159 
Ar 3.40993 27.7551 2.91451 
Ar 4.63299 21.0325 6.07326 
Ar 6.35206 25.8767 6.35796 
Ar 8.0455 22.4582 4.57561 
Ar 11.9241 28.1546 0.97753 
Ar 10.3703 26.2517 6.19473 
Ar 15.4268 27.2686 0.784466 
Ar 17.2967 24.6976 3.65779 
Ar 19.2079 28.0845 2.75702 
Ar 20.4241 24.1348 4.72913 
Ar 22.6188 28.7638 3.39595 
Ar 24.6138 25.3882 3.14127 
Ar 25.9378 29.3104 5.17406 
Ar 27.7848 23.5465 4.45665 
Ar 28.8579 27.3162 4.54522 
Ar 30.2655 24.7457 1.99457 
Ar 32.8016 27.198 3.38677 
Ar 5.38376 6.89014 10.3058 
Ar 6.2278 7.40979 5.74341 
Ar 7.02421 3.4595 5.33969 
Ar 9.8571 6.32804 5.60438 
Ar 10.7675 2.62684 6.79564 
Ar 13.039 6.35735 7.33383 
Ar 14.4768 3.018 7.33605 
Ar 16.6522 8.93359 9.47941 
Ar 18.1846 3.12565 8.57974 
Ar 19.1107 7.37232 7.37395 
Ar 22.9269 0.876035 7.49512 
Ar 21.6285 5.6938 5.25286 
Ar 25.5764 3.20401 8.46563 
Ar 29.502 6.02277 9.08879 
Ar 29.2886 3.29975 7.06567 
Ar 33.055 7.43013 10.1252 
Ar 32.6389 5.11625 7.03718 
Ar 35.8722 9.95433 9.09515 
Ar 5.92888 11.0803 7.11466 
Ar 7.50481 14.3757 5.15039 
Ar 8.60561 10.5152 4.92733 
Ar 9.32266 12.5887 8.30904 
Ar 11.5653 9.83092 6.73867 
Ar 13.2034 14.4302 7.29984 
Ar 16.6508 12.4824 9.09108 
Ar 16.2158 16.1811 7.84011 
Ar 19.486 11.2613 5.87546 
Ar 19.5675 14.3481 7.94443 
Ar 23.0475 12.3749 7.6495 
Ar 24.9754 15.7149 7.68935 
Ar 26.1642 9.55098 8.30388 
Ar 27.635 15.4017 4.57155 
Ar 29.925 10.0394 7.52016 
Ar 31.8744 15.9123 9.08312 
Ar 33.411 12.8199 6.94132 
Ar 36.8923 13.9548 7.61396 
Ar 3.67155 17.4381 6.21288 
Ar 5.40732 19.5407 9.46348 
Ar 6.9278 16.2002 9.02413 
Ar 8.34702 20.3955 7.69931 
Ar 10.0084 17.0448 6.86413 
Ar 13.3447 25.304 2.82852 
Ar 13.7169 19.2929 6.85822 
Ar 15.6167 22.1381 5.78849 
Ar 18.182 18.482 5.93095 
Ar 21.353 23.362 8.54568 
Ar 22.7735 18.603 7.69481 
Ar 24.4452 22.7812 6.22569 
Ar 24.539 17.3824 3.94826 
Ar 28.0546 21.4677 7.98942 
Ar 29.728 18.2829 6.49053 
Ar 30.8885 22.4472 4.8665 
Ar 34.6061 19.9461 8.15151 
Ar 35.2557 23.9317 7.83 
Ar 4.78084 25.5624 9.60926 
Ar 6.09297 28.612 9.80216 
Ar 9.17293 26.8765 9.67659 
Ar 10.1979 29.5283 3.73139 
Ar 10.8094 23.0639 6.96463 
Ar 13.1803 28.0464 4.60383 
Ar 13.9792 25.2255 7.21996 
Ar 16.3218 28.8317 6.82298 
Ar 17.7668 24.5559 7.5247 
Ar 19.8067 27.2796 6.60491 
Ar 23.268 26.2207 6.69315 
Ar 24.4322 28.4541 10.1299 
Ar 26.7936 25.8044 7.49686 
Ar 27.5252 29.4296 8.60073 
Ar 31.4663 25.6875 6.40741 
Ar 31.1411 29.8595 5.49867 
Ar 36.0104 27.5084 6.52321 
Ar 35.8037 32.1104 9.62912 
