216
#
Ar -0.684315 0.622302 -2.12386 
Ar 1.12776 1.36431 2.44911 
Ar 1.63691 -1.4846 -0.67052 
Ar 4.60209 1.93007 1.68972 
Ar 6.70881 -0.892455 3.0791 
Ar 7.87011 1.95525 0.225182 
Ar 8.70441 0.75694 -3.39242 
Ar 12.2737 2.89023 -0.997455 
Ar 11.7312 -0.566991 -2.09003 
Ar 18.5535 2.15825 1.64716 
Ar 15.641 0.516331 0.672328 
Ar 21.5294 3.90701 -3.31915 
Ar 21.2627 1.43132 -0.623193 
Ar 25.0422 2.66586 1.40068 
Ar 27.5154 -0.567512 1.41896 
Ar 28.5957 2.74884 0.0263243 
Ar 30.89 0.441977 1.20129 
Ar 32.431 3.90002 0.160385 
Ar 0.161875 7.91932 4.64825 
Ar 2.00983 9.27803 1.06204 
Ar 2.45822 5.75106 1.6143 
Ar 6.08627 12.8781 -0.49351 
Ar 5.71314 4.30702 -1.57954 
Ar 10.09 9.92183 -2.15954 
Ar 9.43181 5.64178 -2.17209 
Ar 12.7953 11.2472 -0.14087 
Ar 11.9414 7.27793 -0.337476 
Ar 17.1013 9.5312 1.48668 
Ar 19.8545 7.65566 -0.348793 
Ar 20.6336 10.9758 -1.30455 
Ar 22.7159 8.31584 -3.32802 
Ar 23.6488 12.2143 1.07671 
Ar 27.2517 6.5902 2.38891 
Ar 28.6232 13.4518 -2.96376 
Ar 28.2603 9.16643 -0.0305894 
Ar 31.6272 12.1971 -0.0108979 
Ar 2.24657 13.3997 -0.164124 
Ar 0.928537 18.1792 0.847456 
Ar 2.43548 16.524 -2.33212 
Ar 4.86437 19.2208 2.40123 
Ar 5.94783 15.7906 1.31811 
Ar 7.85552 19.9458 0.798833 
Ar 12.4544 15.348 0.517806 
Ar 11.7635 18.6361 -0.988182 
Ar 15.1903 13.2684 1.77548 
Ar 15.7625 19.4456 -1.23352 
Ar 18.8441 13.9034 0.929466 
Ar 19.3323 18.0441 -0.730437 
Ar 22.0638 15.2024 -0.601761 
Ar 22.446 19.4157 1.06035 
Ar 27.8642 16.0395 -0.25325 
Ar 26.1788 19.4087 -0.103471 
Ar 27.551 12.7557 1.26329 
Ar 29.8681 19.2414 -0.423118 
Ar -1.63677 22.4921 -1.51135 
Ar 0.805459 24.5772 -0.00151916 
Ar 3.47495 22.0575 0.577155 
Ar 5.57169 24.5517 2.53701 
Ar 8.27796 24.0049 -0.588771 
Ar 9.43924 26.3122 2.59193 
Ar 11.1615 21.7189 0.407197 
Ar 11.7497 25.2138 -1.69573 
Ar 15.2455 23.0577 -1.71828 
Ar 17.9825 23.7402 0.752352 
Ar 18.2893 21.3996 -2.86697 
Ar 18.6339 27.9383 0.0276214 
Ar 21.4199 24.4674 1.90188 
Ar 22.0072 26.6465 -1.17315 
Ar 24.9965 22.689 -1.01504 
Ar 27.1386 25.5436 0.370268 
Ar 28.4926 21.8959 1.03251 
Ar 30.1143 25.7706 -2.0742 
Ar 1.43345 0.588855 5.96648 
Ar 3.25451 4.23617 6.23795 
Ar 5.11373 0.56379 5.72733 
Ar 6.24946 6.09079 1.74924 
Ar 9.95056 4.88461 2.30719 
Ar 13.3928 6.28726 2.93052 
Ar 12.9885 2.80502 2.61613 
Ar 16.1599 5.05991 0.544026 
Ar 16.5707 -0.483633 4.0349 
Ar 18.3427 6.49746 3.50468 
Ar 19.1763 2.9419 5.16655 
Ar 21.4298 4.1538 2.10359 
Ar 24.225 3.61003 4.89258 
Ar 25.9654 6.06741 6.71835 
Ar 27.9591 3.19102 3.43972 
Ar 30.6961 7.03845 1.47406 
Ar 31.6517 3.16416 4.01863 
Ar 29.5766 5.87334 5.02492 
Ar 2.91494 6.70547 8.80124 
Ar 3.38102 10.1365 4.98884 
Ar 6.42615 11.6215 2.81526 
Ar 9.20883 12.8748 0.882934 
Ar 8.80181 8.27679 1.20443 
Ar 11.1136 13.2528 4.33459 
Ar 12.6475 9.89901 3.29095 
Ar 16.1769 10.9728 4.68917 
Ar 15.453 7.51328 5.27893 
Ar 17.9331 14.5087 4.942 
Ar 20.7791 9.70098 2.50692 
Ar 24.1363 7.48108 -0.279396 
Ar 24.1393 9.40702 4.09095 
Ar 25.7099 12.4222 4.64342 
Ar 28.685 9.3704 5.02818 
Ar 29.4088 13.1453 4.34436 
Ar 31.3251 10.2561 2.73479 
Ar 33.6114 13.1703 2.92532 
Ar -0.97116 15.9338 5.48864 
Ar 0.0931526 19.8899 4.70873 
Ar 3.95812 13.8197 3.72251 
Ar 7.32756 18.3668 5.10362 
Ar 9.57971 16.6533 2.44176 
Ar 10.6953 19.4676 4.46878 
Ar 13.7577 15.6965 4.7165 
Ar 14.7616 21.7204 2.01636 
Ar 16.8007 17.4492 1.71638 
Ar 18.5389 20.3961 2.87942 
Ar 20.41 17.2051 3.09571 
Ar 21.8095 20.4503 4.44453 
Ar 21.6019 13.8039 4.37233 
Ar 24.64 21.88 2.16034 
Ar 25.0498 15.6087 1.66314 
Ar 27.5482 19.3388 4.62174 
Ar 30.5361 17.1924 2.24722 
Ar 32.1417 21.4667 1.79457 
Ar 2.27463 23.599 4.21091 
Ar 3.36893 27.2393 2.58498 
Ar 4.65015 21.1655 5.98195 
Ar 6.27032 26.2303 5.8389 
Ar 7.99801 21.881 4.44364 
Ar 12.0878 28.453 1.41817 
Ar 10.3939 26.4903 6.14995 
Ar 14.676 26.0805 -0.296824 
Ar 16.7956 25.4469 3.89065 
Ar 19.9813 27.2391 3.42205 
Ar 19.7318 23.3729 5.32172 
Ar 23.0598 29.0367 2.87123 
Ar 24.6751 25.8314 3.2945 
Ar 26.4439 29.7353 5.28955 
Ar 27.2465 23.2025 3.9838 
Ar 28.3423 26.451 4.76097 
Ar 30.7933 24.9383 1.6034 
Ar 32.858 27.0792 3.23214 
Ar 5.59671 9.12898 11.1001 
Ar 5.85639 7.15632 6.74852 
Ar 7.19518 3.76681 6.03435 
Ar 10.355 7.38416 5.71485 
Ar 11.4725 3.35795 5.90091 
Ar 13.1083 5.9658 7.56701 
Ar 15.2261 2.72498 6.12808 
Ar 15.3629 8.45616 9.2476 
Ar 17.9264 2.60434 8.66501 
Ar 18.606 6.03703 7.28604 
Ar 22.5783 0.329262 6.83297 
Ar 21.7493 6.87277 4.38135 
Ar 25.1968 3.01801 8.61939 
Ar 29.1524 6.08019 9.17108 
Ar 28.5746 2.81989 6.79025 
Ar 32.6045 8.37358 9.5538 
Ar 32.9675 5.37869 7.54494 
Ar 35.689 10.2619 8.37802 
Ar 6.3628 10.9433 7.57491 
Ar 7.39298 14.7494 4.90809 
Ar 8.74806 10.7217 5.24426 
Ar 8.97685 13.5002 7.94034 
Ar 13.156 10.1454 6.71727 
Ar 13.0393 14.087 8.01964 
Ar 16.5947 12.2337 9.39466 
Ar 16.6295 15.6469 8.06618 
Ar 19.8031 11.0691 6.05534 
Ar 20.3587 14.8943 7.75679 
Ar 23.2637 12.8134 7.76072 
Ar 25.2812 16.4098 8.04708 
Ar 26.3227 10.3578 8.48153 
Ar 27.2913 15.6697 4.40858 
Ar 30.5275 10.5317 7.87912 
Ar 31.6719 15.609 9.32511 
Ar 33.3435 12.7964 7.10865 
Ar 37.3029 13.9477 7.39817 
Ar 2.4765 17.2761 5.18976 
Ar 5.23619 19.3944 9.48107 
Ar 7.33855 16.4489 8.99505 
Ar 8.52766 20.3281 8.17881 
Ar 10.4222 16.7905 6.73007 
Ar 12.8344 24.5669 3.33129 
Ar 14.4508 18.7729 6.35069 
Ar 16.0378 22.0956 5.4271 
Ar 19.2813 18.6271 6.38455 
Ar 21.4357 22.9652 9.27366 
Ar 22.7833 19.0501 8.28644 
Ar 24.2401 22.3127 6.43114 
Ar 24.2411 17.7663 4.51389 
Ar 28.0745 21.6946 8.06164 
Ar 29.1184 16.9725 7.11244 
Ar 30.6475 22.8257 5.35227 
Ar 33.5007 19.2889 8.52802 
Ar 34.6978 22.5605 7.93934 
Ar 4.46162 25.7134 10.3001 
Ar 5.00375 29.2878 9.09077 
Ar 7.5912 27.5533 10.4648 
Ar 9.36173 30.4754 3.63249 
Ar 12.3885 21.6746 6.83866 
Ar 12.6057 29.2212 4.88338 
Ar 13.699 25.183 6.51129 
Ar 15.595 28.8207 8.00967 
Ar 18.1661 25.0281 8.09288 
Ar 19.0953 29.0215 7.15852 
Ar 22.2375 25.7584 5.79786 
Ar 25.1079 28.7068 9.86276 
Ar 26.2285 24.8318 7.21164 
Ar 28.8572 29.074 8.75919 
Ar 32.4801 25.5697 6.3809 
Ar 29.8147 29.4083 4.72927 
Ar 35.989 26.9309 6.66281 
Ar 35.472 32.2101 9.42814 
