216
#
Ar -0.713672 0.76414 -2.21656 
Ar 1.26662 1.21126 2.55637 
Ar 1.69221 -1.48299 -0.74116 
Ar 4.55274 1.82579 1.72152 
Ar 6.72594 -0.731766 3.03947 
Ar 8.03353 1.74328 0.287344 
Ar 8.5791 0.680806 -3.57736 
Ar 12.4142 2.78894 -1.03028 
Ar 12.1129 -0.541737 -1.89017 
Ar 18.4686 2.07771 1.62006 
Ar 15.5374 0.661022 0.671956 
Ar 21.4428 3.76278 -3.29093 
Ar 21.352 1.36339 -0.651308 
Ar 24.8326 2.51297 1.55631 
Ar 27.5474 -0.413215 1.43621 
Ar 28.556 2.79854 -0.153543 
Ar 30.9841 0.348119 1.06278 
Ar 32.4576 3.76331 0.272036 
Ar 0.326418 7.93249 4.63322 
Ar 1.95 9.35617 1.22251 
Ar 2.67739 5.92362 1.43717 
Ar 5.88147 12.8663 -0.54868 
Ar 5.85085 4.21406 -1.61763 
Ar 9.88086 9.89974 -2.01868 
Ar 9.32107 5.51754 -2.14907 
Ar 12.697 11.2084 -0.223624 
Ar 11.8836 7.40194 -0.285995 
Ar 17.1734 9.55297 1.50674 
Ar 19.8592 7.40651 -0.206677 
Ar 20.6259 11.1403 -1.30487 
Ar 22.5495 8.46377 -3.34657 
Ar 23.6596 12.0889 1.2926 
Ar 27.1827 6.63058 2.30412 
Ar 28.5139 13.4948 -3.04185 
Ar 28.1776 9.33222 0.18675 
Ar 31.6416 12.1897 -0.30174 
Ar 2.33067 13.4885 -0.37118 
Ar 0.84668 18.1428 0.869191 
Ar 2.29753 16.4925 -2.28275 
Ar 4.72358 19.1556 2.27749 
Ar 6.09652 15.9903 1.35817 
Ar 7.84597 20.0752 0.857367 
Ar 12.4147 15.3128 0.475648 
Ar 11.6466 18.5832 -0.919152 
Ar 14.95 13.2902 1.69396 
Ar 15.8363 19.5263 -1.31186 
Ar 18.8145 13.9327 0.895748 
Ar 19.2496 18.0046 -0.981876 
Ar 21.9084 15.2601 -0.391997 
Ar 22.5101 19.7113 0.722191 
Ar 28.0747 16.0834 -0.395248 
Ar 26.3984 19.3945 -0.230163 
Ar 27.489 12.6345 1.39897 
Ar 29.9934 19.0612 -0.633657 
Ar -1.70375 22.6246 -1.40515 
Ar 0.88009 24.8058 0.114773 
Ar 3.29788 22.0116 0.821103 
Ar 5.71908 24.5686 2.57541 
Ar 8.60147 23.8497 -0.515962 
Ar 9.50656 26.2338 2.56616 
Ar 11.1279 21.5549 0.545777 
Ar 11.7797 25.1558 -1.66395 
Ar 15.0852 23.0504 -1.78227 
Ar 17.8357 23.6059 0.637382 
Ar 18.3512 21.4297 -2.98358 
Ar 18.6142 28.0025 -0.0439926 
Ar 21.4354 24.4019 1.81394 
Ar 21.9404 26.586 -1.31296 
Ar 25.0455 22.8209 -0.938427 
Ar 27.0607 25.5452 0.465431 
Ar 28.4538 22.0633 0.988098 
Ar 30.0654 25.7949 -2.11641 
Ar 1.40914 0.735781 5.98311 
Ar 3.53718 4.30514 6.05631 
Ar 4.94518 0.765028 5.7446 
Ar 6.13853 5.77208 1.75979 
Ar 9.76736 4.78439 2.43143 
Ar 13.4004 6.32634 2.97803 
Ar 12.7478 2.71503 2.61976 
Ar 16.1417 5.01865 0.553197 
Ar 16.4804 -0.208162 3.80493 
Ar 18.4256 6.6995 3.58629 
Ar 19.3217 2.87019 4.96174 
Ar 21.5594 4.14357 1.98711 
Ar 24.2069 3.6311 4.81748 
Ar 26.0654 6.12805 6.75263 
Ar 27.8294 3.11561 3.39254 
Ar 30.6809 7.05732 1.42386 
Ar 31.4789 3.12919 3.89197 
Ar 29.7162 5.80689 4.98081 
Ar 2.93064 6.61769 8.80007 
Ar 3.34504 10.2628 5.04969 
Ar 6.23745 11.2809 2.75721 
Ar 9.19739 12.9112 1.04895 
Ar 8.86854 8.36879 1.15243 
Ar 11.1357 13.2379 4.47354 
Ar 12.8025 10.2684 3.28463 
Ar 16.1249 10.9797 4.68277 
Ar 15.6477 7.59516 5.46557 
Ar 17.9046 14.7717 4.91834 
Ar 20.786 9.68101 2.47921 
Ar 24.0813 7.58361 -0.113048 
Ar 24.1052 9.40399 4.10121 
Ar 25.7525 12.5085 4.75408 
Ar 28.5791 9.46943 5.19951 
Ar 29.4326 12.8779 4.41191 
Ar 31.3249 10.092 2.55192 
Ar 33.3303 13.1926 2.89485 
Ar -0.936343 15.9737 5.59174 
Ar 0.0519594 19.8143 4.69401 
Ar 4.08809 13.7185 3.73406 
Ar 7.24634 18.3883 4.97125 
Ar 9.57808 16.7854 2.4788 
Ar 10.76 19.6085 4.44657 
Ar 13.7545 15.5761 4.5464 
Ar 14.6667 21.5948 1.70289 
Ar 16.9818 17.4741 2.07078 
Ar 18.5633 20.5731 3.02337 
Ar 20.2311 17.1355 3.15997 
Ar 21.9632 20.4508 4.40688 
Ar 21.5643 13.7835 4.43368 
Ar 24.6566 21.8335 2.26896 
Ar 25.2178 15.3903 1.5052 
Ar 27.4674 19.5961 4.46656 
Ar 30.4283 17.2246 2.37881 
Ar 32.0966 21.6271 1.72904 
Ar 2.15727 23.6133 3.92049 
Ar 3.40711 27.2515 2.62504 
Ar 4.64453 21.1139 6.17341 
Ar 6.23002 26.1967 5.96563 
Ar 7.79732 21.9477 4.18409 
Ar 11.9795 28.3124 1.53585 
Ar 10.341 26.4959 6.00796 
Ar 14.821 26.1667 -0.131153 
Ar 16.7959 25.6059 3.93978 
Ar 19.756 27.3912 3.37167 
Ar 19.8762 23.3803 5.29323 
Ar 23.0258 28.9868 2.99034 
Ar 24.6834 25.7339 3.36068 
Ar 26.3343 29.7362 5.45045 
Ar 27.1826 23.1679 4.10026 
Ar 28.4015 26.4831 4.68573 
Ar 30.6904 24.6949 1.60642 
Ar 32.9252 27.067 3.24752 
Ar 5.58058 8.92799 10.8198 
Ar 5.76973 7.16735 6.77694 
Ar 7.17877 3.84909 5.94582 
Ar 10.2442 7.54327 5.69223 
Ar 11.28 3.18644 5.94506 
Ar 13.051 5.98245 7.50686 
Ar 14.987 2.44914 6.06563 
Ar 15.6344 8.6737 9.27572 
Ar 18.0178 2.79285 9.00657 
Ar 18.584 6.11882 7.44103 
Ar 22.6414 0.328939 6.89694 
Ar 21.7491 6.62146 4.32869 
Ar 25.2043 2.9813 8.46454 
Ar 29.2249 6.0404 9.13258 
Ar 28.7467 2.91855 6.7926 
Ar 32.6494 8.26513 9.49762 
Ar 32.9953 5.12737 7.66964 
Ar 35.5051 10.247 8.37779 
Ar 6.40355 10.9769 7.62248 
Ar 7.24254 14.8722 4.95463 
Ar 8.95979 10.7411 5.27457 
Ar 9.08229 13.2314 7.97789 
Ar 12.9303 10.0572 6.72016 
Ar 12.7953 14.0108 8.19381 
Ar 16.5387 12.3829 9.56716 
Ar 16.6931 15.7886 7.97891 
Ar 19.8996 10.9889 6.06895 
Ar 20.2476 14.8389 7.54818 
Ar 23.286 12.7155 7.82058 
Ar 25.4692 16.371 8.05103 
Ar 26.3173 10.4291 8.38366 
Ar 27.2077 15.571 4.44852 
Ar 30.5305 10.4654 7.83454 
Ar 31.8378 15.7275 9.23154 
Ar 33.3979 12.6067 7.2103 
Ar 37.2517 14.1553 7.3458 
Ar 2.53183 17.3709 5.36443 
Ar 5.20729 19.4142 9.47996 
Ar 7.46222 16.2061 9.03698 
Ar 8.54317 20.3379 8.22186 
Ar 10.2943 16.7696 6.86955 
Ar 12.7889 24.7199 3.14219 
Ar 14.5192 18.7223 6.54273 
Ar 16.157 21.9997 5.48334 
Ar 19.5195 18.6552 6.39285 
Ar 21.5735 22.9026 9.376 
Ar 22.6902 19.0707 8.08431 
Ar 24.4034 22.2999 6.2373 
Ar 24.3431 17.7928 4.5253 
Ar 27.964 21.6996 8.18213 
Ar 29.1051 17.003 7.16293 
Ar 30.6109 22.8394 5.16127 
Ar 33.481 19.4223 8.46658 
Ar 34.5912 22.6448 7.81337 
Ar 4.41039 25.6963 10.3713 
Ar 5.01034 29.4159 9.09091 
Ar 7.82658 27.5075 10.4523 
Ar 9.56456 30.4103 3.79729 
Ar 12.2729 21.7455 6.76187 
Ar 12.6941 29.2149 4.8032 
Ar 13.9247 25.1123 6.55935 
Ar 15.6538 28.7105 7.99089 
Ar 18.1364 24.8531 8.01279 
Ar 19.0929 28.7196 7.18245 
Ar 22.4655 25.8749 5.88775 
Ar 25.0609 28.8418 9.88937 
Ar 26.1852 25.0292 7.41394 
Ar 28.8927 29.0644 8.6083 
Ar 32.5318 25.4559 6.39111 
Ar 29.9196 29.5639 4.87779 
Ar 35.9996 26.8347 6.6344 
Ar 35.6486 32.2274 9.55424 
