216
#
Ar -1.40261 1.18432 -2.38435 
Ar 1.11084 1.29263 1.96537 
Ar 0.821956 -1.54631 -0.587422 
Ar 5.05903 2.60585 1.71371 
Ar 6.76407 -0.993652 2.27674 
Ar 8.12194 2.66664 -0.213231 
Ar 8.06984 1.02387 -3.57445 
Ar 11.5912 3.15309 -0.823996 
Ar 11.8446 -0.556145 -2.16518 
Ar 18.3359 2.19807 2.04213 
Ar 15.5946 0.289672 0.266739 
Ar 22.0473 5.1314 -3.18906 
Ar 21.4619 1.19601 -1.05946 
Ar 25.363 3.45486 1.51909 
Ar 27.3412 -0.429709 1.64561 
Ar 28.2194 2.96499 0.0395923 
Ar 30.7283 0.465873 0.904097 
Ar 31.769 3.79232 0.0530807 
Ar 0.780707 7.23734 4.99509 
Ar 1.26822 9.61918 1.64296 
Ar 1.56307 5.06414 2.37858 
Ar 6.3627 13.4547 -0.842269 
Ar 5.39699 4.50707 -1.73229 
Ar 10.2349 9.75702 -2.40441 
Ar 8.87565 5.73242 -2.31889 
Ar 13.7702 10.9947 -0.386229 
Ar 11.9887 7.51474 -0.303665 
Ar 16.878 9.49145 1.65737 
Ar 19.3453 6.97111 -0.753398 
Ar 20.7833 11.7826 -1.43625 
Ar 22.7769 8.6462 -3.0966 
Ar 24.118 11.838 0.504774 
Ar 26.9747 6.28177 2.90156 
Ar 28.1075 13.682 -2.79564 
Ar 29.1355 9.35216 0.236585 
Ar 31.4465 12.0664 0.157719 
Ar 2.51952 13.418 0.550305 
Ar 1.68621 18.011 1.15432 
Ar 3.158 16.0314 -1.64041 
Ar 5.01803 19.5322 2.2403 
Ar 5.75583 16.2263 1.05012 
Ar 8.85682 19.357 0.797705 
Ar 12.8407 14.989 0.557856 
Ar 11.7832 18.3441 -2.00655 
Ar 15.6831 12.715 1.93103 
Ar 15.341 19.3558 -1.47988 
Ar 19.8121 14.099 0.999424 
Ar 19.2262 17.5905 -0.583817 
Ar 22.1952 15.8344 -1.17481 
Ar 22.2302 18.8193 1.73911 
Ar 27.7665 15.8626 0.106451 
Ar 26.2011 19.2885 -0.0880056 
Ar 27.7015 12.4371 0.879764 
Ar 29.94 19.1303 -0.491732 
Ar -1.42287 22.2562 -1.99077 
Ar 0.687211 24.4047 0.404776 
Ar 4.13044 22.2082 0.447927 
Ar 5.98274 24.1182 2.98376 
Ar 7.47089 23.2485 -0.848782 
Ar 9.31171 25.6475 2.02703 
Ar 11.4696 21.7101 0.606402 
Ar 10.5614 25.1064 -1.52817 
Ar 14.7542 23.1692 -1.15698 
Ar 18.377 23.9277 0.273193 
Ar 18.5895 20.7607 -2.1392 
Ar 18.6192 27.8867 0.500619 
Ar 21.678 24.245 2.14958 
Ar 21.7845 26.7337 -0.519287 
Ar 24.5216 22.2191 -0.85239 
Ar 26.6727 25.569 -0.0746443 
Ar 28.4154 22.0251 0.620144 
Ar 29.9095 25.4595 -1.99042 
Ar 1.14338 0.648721 5.61716 
Ar 2.68472 4.09935 5.71981 
Ar 5.10917 0.539858 5.46131 
Ar 5.82048 5.94976 2.33686 
Ar 9.84719 5.40613 1.91518 
Ar 13.676 5.70528 2.90235 
Ar 14.3572 1.89072 2.9357 
Ar 15.449 5.1358 -0.0906948 
Ar 16.3723 -0.591496 4.4945 
Ar 18.0419 5.67098 2.82398 
Ar 19.5043 2.75272 5.39186 
Ar 21.8523 3.98926 2.04008 
Ar 24.2221 3.39077 4.90852 
Ar 25.9677 6.56023 6.64492 
Ar 28.4517 2.93988 3.54978 
Ar 30.7209 6.39708 2.28841 
Ar 32.0942 3.71773 4.55828 
Ar 29.3107 6.25936 5.3924 
Ar 2.52286 7.07647 9.94042 
Ar 4.20166 9.83314 4.20189 
Ar 7.20454 12.1203 2.43299 
Ar 10.3366 12.3948 0.433568 
Ar 8.7369 9.42023 1.01824 
Ar 11.3339 13.2579 3.82066 
Ar 12.9145 9.68288 3.28823 
Ar 16.4345 10.8998 4.85274 
Ar 15.2443 7.61508 5.55546 
Ar 17.8 13.9416 4.51527 
Ar 20.3536 10.7574 2.37266 
Ar 24.9431 6.49578 -0.406166 
Ar 24.073 8.8467 3.6725 
Ar 26.0101 12.8999 4.34466 
Ar 27.7956 9.9251 4.47341 
Ar 30.0593 13.4141 4.69368 
Ar 31.0526 10.0024 3.18473 
Ar 33.6016 13.599 3.59254 
Ar -0.777412 16.8961 5.76992 
Ar 0.655365 20.4831 5.291 
Ar 4.13861 13.8961 3.49063 
Ar 7.14111 18.241 5.25083 
Ar 9.38104 15.9716 1.86854 
Ar 11.4264 19.4752 3.68575 
Ar 14.26 15.4653 4.05218 
Ar 15.032 21.6626 1.93177 
Ar 16.3379 16.5981 1.36908 
Ar 17.9988 19.8061 1.65857 
Ar 20.1343 16.7633 3.43268 
Ar 20.2375 20.0129 4.65391 
Ar 22.5737 13.0592 3.64504 
Ar 24.5477 21.3048 2.99318 
Ar 24.3163 15.8378 2.13437 
Ar 28.3509 19.5879 4.33528 
Ar 30.7107 16.5141 2.11983 
Ar 32.0567 21.0331 1.53933 
Ar 2.06141 24.2403 4.42302 
Ar 3.10686 27.2504 3.16536 
Ar 5.19116 21.2934 5.7768 
Ar 6.23911 25.6664 5.97322 
Ar 8.78966 22.8234 5.1248 
Ar 11.5509 28.9837 1.58914 
Ar 10.4727 26.2919 5.80622 
Ar 14.9509 26.4491 -0.123166 
Ar 15.9045 25.3439 3.34367 
Ar 20.0496 27.6489 3.74955 
Ar 18.9191 23.2428 5.3229 
Ar 23.2589 29.6647 2.05273 
Ar 25.1207 26.0966 3.0359 
Ar 26.2361 29.2082 5.21203 
Ar 27.0619 23.4628 4.78125 
Ar 28.7624 26.8575 4.93009 
Ar 30.1074 25.2626 1.65893 
Ar 32.2922 27.7431 3.26081 
Ar 5.31301 9.24826 11.21 
Ar 6.24228 7.17557 6.19 
Ar 7.4969 3.52912 5.17181 
Ar 10.7806 6.62383 5.20943 
Ar 11.4133 3.14089 5.29116 
Ar 13.3501 5.54029 7.9613 
Ar 15.9426 4.06443 5.30951 
Ar 15.7856 8.08604 9.09216 
Ar 17.8098 2.62544 9.29663 
Ar 18.2477 6.42463 6.96632 
Ar 22.9323 0.36648 6.73904 
Ar 21.0108 6.83575 4.80086 
Ar 24.9553 2.7183 8.4466 
Ar 28.9976 6.42733 9.28231 
Ar 28.4841 2.93495 7.18151 
Ar 32.1593 8.13294 10.0677 
Ar 32.661 5.44059 7.66066 
Ar 35.5359 10.4477 8.65668 
Ar 6.92472 10.4357 7.85295 
Ar 7.75436 14.5643 5.30538 
Ar 9.30608 10.1294 4.75871 
Ar 9.55557 13.4772 8.11065 
Ar 13.4725 10.1597 7.23488 
Ar 13.2908 14.0555 8.09957 
Ar 17.1721 11.4264 8.36886 
Ar 16.5751 15.9475 8.9921 
Ar 20.0496 11.1035 6.16092 
Ar 19.8904 14.7949 7.27656 
Ar 23.3054 13.019 7.23998 
Ar 25.5447 16.0344 7.91746 
Ar 26.2142 10.4802 7.74578 
Ar 27.69 16.2709 4.21226 
Ar 30.2608 10.4387 7.12167 
Ar 31.5485 15.5395 9.61674 
Ar 33.5506 13.2814 7.72525 
Ar 37.2444 13.3748 7.2193 
Ar 2.82598 17.4322 4.70543 
Ar 4.21209 19.3883 8.63754 
Ar 7.41796 16.7616 9.05068 
Ar 8.90916 20.3113 8.26954 
Ar 11.0729 16.2181 6.0555 
Ar 12.7161 24.132 3.36611 
Ar 14.2941 18.7775 5.84338 
Ar 15.6258 22.4906 6.59076 
Ar 17.5635 17.9284 6.13984 
Ar 21.186 23.2836 9.38503 
Ar 22.3942 19.6012 9.13394 
Ar 23.4823 22.1295 6.36308 
Ar 23.2815 18.3802 5.97161 
Ar 27.6046 21.2387 8.23691 
Ar 28.839 17.3387 7.2862 
Ar 30.9221 22.8435 4.96074 
Ar 33.4628 18.362 8.6177 
Ar 35.3542 22.3932 8.0863 
Ar 4.07999 25.8049 10.2956 
Ar 4.95734 29.6693 9.50721 
Ar 8.48619 28.1137 10.1648 
Ar 9.00928 30.7763 3.0831 
Ar 11.8573 22.2712 7.91651 
Ar 12.7392 29.114 5.11405 
Ar 14.4179 25.9077 7.14864 
Ar 15.4117 29.4467 7.83037 
Ar 17.7423 25.7208 8.09377 
Ar 19.7198 28.7023 7.31445 
Ar 22.2783 25.8801 6.53386 
Ar 24.7221 28.4141 9.42762 
Ar 26.2447 25.4675 7.42431 
Ar 28.3739 28.6809 9.32959 
Ar 32.562 26.2701 6.57074 
Ar 30.3752 30.0148 5.18712 
Ar 36.1594 27.192 6.57218 
Ar 34.8086 31.9314 9.0948 
