216
#
Ar -0.131601 0.408116 -2.10128 
Ar 1.26643 2.16471 0.789339 
Ar 2.89347 -1.71453 -0.00561425 
Ar 5.50485 2.78714 0.804036 
Ar 6.85408 -2.11827 1.03883 
Ar 8.89802 0.873581 -0.0263734 
Ar 9.95874 -1.00555 -3.35502 
Ar 13.7632 4.93387 -1.1532 
Ar 13.289 0.691501 -1.4798 
Ar 17.1981 4.98339 -0.589075 
Ar 16.5718 1.2178 -0.833883 
Ar 21.1693 5.36822 -0.96354 
Ar 20.4859 1.8173 -0.267838 
Ar 24.0849 2.5031 0.67551 
Ar 26.5303 0.318828 2.55807 
Ar 27.7397 2.92997 0.670273 
Ar 30.5856 0.730341 2.09416 
Ar 31.6256 4.11197 -0.684448 
Ar -0.0725236 7.63444 3.72567 
Ar 0.883558 10.8421 2.37572 
Ar 3.68317 6.22976 2.7952 
Ar 4.45065 12.5465 0.52423 
Ar 7.80461 4.13329 -2.72547 
Ar 7.02265 8.45833 -1.21581 
Ar 10.3247 5.05999 -0.288845 
Ar 11.0126 11.6285 -0.100072 
Ar 12.8248 8.43342 -0.292999 
Ar 16.2035 11.363 1.5726 
Ar 18.6857 7.93285 0.956123 
Ar 19.716 11.6271 -0.724058 
Ar 22.7284 8.85961 -1.0554 
Ar 23.6777 12.3683 -1.51551 
Ar 26.0919 5.93712 1.56197 
Ar 26.873 13.2473 -2.24205 
Ar 27.4412 10.1155 -0.158908 
Ar 30.3216 12.7049 -1.4652 
Ar 1.07346 13.46 -0.626007 
Ar 1.17936 17.6708 0.614831 
Ar 4.06055 15.5719 -1.29129 
Ar 4.43495 18.7803 2.0316 
Ar 6.77202 15.4435 1.2292 
Ar 8.7749 18.0917 -0.433745 
Ar 10.4842 15.3782 1.50746 
Ar 13.1814 17.835 0.363698 
Ar 13.7133 13.6557 1.20016 
Ar 16.529 18.17 -1.40111 
Ar 18.1277 14.7219 0.24516 
Ar 20.2607 18.6253 0.23114 
Ar 21.8705 15.3356 -0.378217 
Ar 23.2936 18.0938 1.88913 
Ar 29.0307 15.8825 -0.912634 
Ar 25.8103 19.9122 -0.426132 
Ar 28.7492 13.0218 2.03476 
Ar 29.597 19.5062 -0.240993 
Ar -1.79863 22.7049 -2.28088 
Ar 0.595203 24.6997 -0.813328 
Ar 2.70788 21.2882 -0.305323 
Ar 5.01164 24.0319 2.30243 
Ar 7.18796 21.7909 -0.174933 
Ar 9.15925 25.1483 1.98542 
Ar 10.9122 21.0602 0.303822 
Ar 12.5476 24.9329 0.594626 
Ar 14.2884 22.5086 -1.82949 
Ar 18.5483 24.5331 0.127015 
Ar 17.9301 21.3968 -1.43282 
Ar 20.2955 27.3173 -1.6144 
Ar 21.213 22.2439 0.318916 
Ar 22.6995 25.525 1.22838 
Ar 24.3529 23.4208 -1.52702 
Ar 26.8848 25.8628 0.60303 
Ar 27.8894 22.482 1.54902 
Ar 30.0986 25.9706 -0.934688 
Ar 2.44105 1.1726 4.69564 
Ar 3.71464 4.14109 6.23066 
Ar 6.06047 0.403688 3.65945 
Ar 7.44467 6.0035 2.52189 
Ar 10.7858 2.99611 2.57062 
Ar 12.1262 6.73869 3.29325 
Ar 14.4024 3.37078 2.09497 
Ar 15.4157 6.58356 2.07339 
Ar 17.3491 1.77793 3.52574 
Ar 18.3545 5.05035 4.19599 
Ar 20.9872 2.45354 3.71114 
Ar 21.5696 6.27327 2.5024 
Ar 24.718 2.85207 4.49289 
Ar 26.3148 6.20183 5.68132 
Ar 28.3424 2.80049 4.11619 
Ar 29.6569 6.09317 1.52507 
Ar 32.3759 3.72902 3.09353 
Ar 30.1079 6.14174 5.41822 
Ar 1.64532 7.48325 7.29448 
Ar 3.70991 10.8554 4.59944 
Ar 6.12791 9.67464 2.21699 
Ar 8.09547 12.2355 2.62243 
Ar 9.78894 8.87093 1.90599 
Ar 10.3003 12.7875 5.44054 
Ar 12.4458 10.5773 2.95481 
Ar 14.9251 12.9956 4.77951 
Ar 15.7619 9.19153 4.87438 
Ar 18.4869 14.3541 3.91107 
Ar 20.1079 8.82823 4.63718 
Ar 22.8563 10.7996 1.96764 
Ar 23.817 8.51563 4.23747 
Ar 25.4843 11.9296 4.79434 
Ar 27.7131 9.06898 4.00988 
Ar 29.0264 12.6724 5.72457 
Ar 30.64 9.80497 1.87502 
Ar 32.1263 13.8796 2.96573 
Ar 0.769014 17.5014 4.52178 
Ar 2.54178 21.1754 4.09472 
Ar 2.7641 15.1958 2.60134 
Ar 7.29433 19.3278 4.28758 
Ar 8.73241 15.9599 4.28055 
Ar 11.351 19.3694 3.77462 
Ar 12.7109 15.7385 4.80306 
Ar 14.4785 21.0387 2.16421 
Ar 16.714 17.739 3.5333 
Ar 18.4686 21.0763 2.70508 
Ar 20.1339 17.4783 4.15894 
Ar 21.2826 20.8241 4.5384 
Ar 22.2697 14.4031 3.16306 
Ar 24.1931 22.3526 2.46669 
Ar 26.0539 15.2977 2.71517 
Ar 28.5218 19.5714 3.61563 
Ar 30.8971 17.2078 2.59659 
Ar 32.4459 20.9705 1.65327 
Ar 1.06348 24.2938 3.62431 
Ar 3.42946 27.0272 3.7336 
Ar 5.20828 21.8579 6.35718 
Ar 7.29853 24.8224 5.3269 
Ar 9.47284 22.1293 4.33922 
Ar 12.161 28.6696 1.71398 
Ar 11.0079 25.8137 5.06374 
Ar 15.1132 27.1673 2.98462 
Ar 16.2006 23.9017 3.39304 
Ar 19.4572 28.1802 1.95063 
Ar 20.3066 24.8018 3.64153 
Ar 22.9931 28.2592 3.51954 
Ar 25.5087 25.3125 3.86494 
Ar 25.908 28.975 6.52831 
Ar 28.1066 23.4574 5.16062 
Ar 28.6546 27.7317 4.67942 
Ar 30.0491 25.2012 2.54403 
Ar 33.0067 27.4299 1.77461 
Ar 4.00089 5.48674 9.82523 
Ar 5.55317 7.75246 5.23019 
Ar 8.02392 3.29864 4.87369 
Ar 9.363 6.61636 6.15152 
Ar 11.2486 3.2949 7.16592 
Ar 12.9605 6.86823 7.16807 
Ar 15.7199 4.43879 6.24288 
Ar 16.0466 8.4771 8.21742 
Ar 19.1649 3.00859 7.27288 
Ar 19.502 7.16106 7.6123 
Ar 22.8408 0.950574 7.18511 
Ar 23.0639 5.40698 6.97968 
Ar 25.6066 3.07226 8.48314 
Ar 27.6398 6.58901 9.18137 
Ar 29.0101 3.49981 7.583 
Ar 32.4251 7.93623 10.0502 
Ar 33.0898 3.93961 6.99425 
Ar 36.0614 9.20363 10.4025 
Ar 4.9117 10.93 8.16113 
Ar 6.05272 13.5116 5.36351 
Ar 8.06619 10.0141 5.9906 
Ar 9.63963 13.8763 8.47214 
Ar 11.6655 10.0311 7.42628 
Ar 13.5476 14.8647 8.60335 
Ar 14.4124 11.5354 9.32719 
Ar 17.4589 15.0526 7.08899 
Ar 18.2968 11.1977 6.77197 
Ar 20.8299 15.9381 7.34242 
Ar 22.0567 11.6801 5.71326 
Ar 24.2165 14.9214 6.23512 
Ar 25.5274 9.45878 7.59225 
Ar 27.9369 16.6039 5.76219 
Ar 29.3528 9.49494 7.57957 
Ar 31.7893 15.0695 6.28492 
Ar 32.4696 10.9222 6.33459 
Ar 35.6143 13.8696 6.76915 
Ar 4.34766 17.3006 5.46277 
Ar 5.07806 18.8904 8.57171 
Ar 7.42483 16.382 7.62544 
Ar 8.81511 20.364 7.64346 
Ar 10.768 17.1502 7.41779 
Ar 13.2536 23.0545 5.12429 
Ar 13.4703 19.5177 7.65129 
Ar 16.7267 22.0111 6.22108 
Ar 18.6271 18.8672 6.96062 
Ar 20.7885 22.5045 7.5853 
Ar 22.6021 19.3845 8.74785 
Ar 24.6593 22.2681 6.37509 
Ar 24.4486 18.2767 5.30872 
Ar 27.96 21.7381 8.13031 
Ar 30.6036 18.4203 7.11948 
Ar 32.0337 21.3619 5.14644 
Ar 34.3021 18.9272 7.9884 
Ar 35.1017 22.8757 7.35926 
Ar 4.71348 24.3141 9.66846 
Ar 5.88276 27.7692 6.78324 
Ar 8.02594 25.3165 9.42517 
Ar 9.82521 29.4116 4.02763 
Ar 10.9489 23.5196 8.01556 
Ar 13.7313 30.2443 4.45003 
Ar 14.2758 25.6406 7.89088 
Ar 16.3842 28.9411 6.86862 
Ar 18.2796 25.0104 6.60387 
Ar 19.917 28.0274 6.04624 
Ar 22.6865 25.4028 6.72031 
Ar 24.0214 28.5507 10.1286 
Ar 27.443 25.7892 7.85442 
Ar 28.6058 29.4826 9.21319 
Ar 31.8985 25.6148 6.73796 
Ar 31.3393 29.68 5.29969 
Ar 35.3575 27.6321 7.18707 
Ar 36.56 30.7107 8.75218 
