216
#
Ar -1.40535 1.57446 -2.35929 
Ar 1.17697 1.13041 2.17686 
Ar -0.0192965 -1.50615 -1.03942 
Ar 5.06284 2.32826 1.91722 
Ar 6.2937 -1.43454 2.17277 
Ar 8.02119 2.58656 -0.600696 
Ar 8.47012 0.992706 -4.19248 
Ar 11.8853 2.79019 -0.551413 
Ar 11.9843 -0.377449 -2.28745 
Ar 18.4823 1.89658 2.2729 
Ar 15.3701 1.00098 0.0145717 
Ar 21.9579 5.22729 -2.82268 
Ar 21.5962 1.33511 -1.18676 
Ar 24.9412 3.44062 1.55744 
Ar 26.8704 -0.118277 1.75896 
Ar 28.2853 2.76629 -0.44518 
Ar 30.4547 0.180894 1.2219 
Ar 32.0113 3.44794 0.819345 
Ar 1.76998 7.66032 5.19069 
Ar 1.19635 9.82331 1.78455 
Ar 1.82215 5.09526 2.19636 
Ar 6.55577 13.3913 -0.712806 
Ar 5.13764 4.40646 -2.10694 
Ar 10.1818 9.53793 -2.31506 
Ar 8.72709 5.94473 -2.45809 
Ar 13.9143 10.5497 -0.634033 
Ar 12.1993 7.55553 0.0382876 
Ar 16.8482 8.76099 1.55797 
Ar 19.2175 6.55556 -0.319048 
Ar 20.9189 11.8825 -1.34086 
Ar 22.4386 9.16676 -2.93151 
Ar 24.2431 11.5975 0.228342 
Ar 26.8825 6.47944 3.04875 
Ar 28.4217 13.3874 -3.07532 
Ar 28.5551 9.15956 0.678707 
Ar 31.777 11.952 0.0304719 
Ar 2.20096 12.9065 0.432435 
Ar 1.88727 17.8805 1.23222 
Ar 3.41956 15.7328 -1.65323 
Ar 5.48575 19.843 2.3529 
Ar 5.59068 16.4676 1.2825 
Ar 8.65386 19.101 0.804882 
Ar 12.9453 15.0484 0.690027 
Ar 11.7587 17.9459 -1.94462 
Ar 15.6444 12.9113 1.62133 
Ar 15.248 19.5036 -1.42387 
Ar 19.8531 14.2667 1.10391 
Ar 19.4735 17.0544 -1.20196 
Ar 22.9445 15.8988 -1.22352 
Ar 22.2418 18.8574 1.77948 
Ar 27.7686 15.8089 0.141617 
Ar 26.2334 18.846 0.0863947 
Ar 27.7008 12.4494 1.45017 
Ar 30.12 18.7215 -0.28371 
Ar -1.31 22.0456 -1.98519 
Ar 0.583349 24.4591 0.893153 
Ar 3.41928 22.5372 0.342623 
Ar 6.06258 23.9233 2.74428 
Ar 7.58718 22.8554 -0.714245 
Ar 9.06149 25.38 1.66405 
Ar 11.7478 21.5089 0.337617 
Ar 10.9281 25.1219 -1.19669 
Ar 14.444 23.0573 -0.964842 
Ar 17.6667 23.8452 0.420512 
Ar 18.5151 20.7672 -2.3982 
Ar 18.2808 27.9733 0.464514 
Ar 21.534 24.2848 2.53891 
Ar 21.6809 26.6642 -0.409675 
Ar 24.5539 22.684 -0.0793546 
Ar 26.6242 25.8713 0.22338 
Ar 27.9414 22.5353 0.882544 
Ar 29.5787 25.0877 -2.21367 
Ar 0.858429 0.916307 5.74366 
Ar 3.16006 4.14914 5.50371 
Ar 4.73527 0.955232 4.95596 
Ar 5.64452 6.40691 2.55504 
Ar 9.45253 5.9967 2.0565 
Ar 13.0117 5.83334 2.78666 
Ar 14.1689 2.5499 3.38172 
Ar 15.0421 4.6212 -0.176376 
Ar 16.7675 -0.496128 3.81552 
Ar 17.767 5.69483 2.76916 
Ar 20.3944 2.62614 6.0327 
Ar 21.2369 3.73381 1.56036 
Ar 24.3753 3.7832 5.29608 
Ar 25.5697 6.83177 6.63005 
Ar 28.2958 3.1246 3.15299 
Ar 30.4602 6.59303 2.03787 
Ar 31.7754 3.82412 4.44114 
Ar 29.6967 6.63361 6.08246 
Ar 2.43422 6.6118 9.98687 
Ar 4.95561 10.1626 4.0489 
Ar 7.7036 12.5229 2.58113 
Ar 10.7515 12.0193 0.438396 
Ar 8.36232 8.80935 0.697136 
Ar 11.5088 12.8111 4.00078 
Ar 13.8624 10.1309 3.02827 
Ar 16.6422 10.5653 5.19332 
Ar 15.0435 7.11701 5.18358 
Ar 17.6993 14.2606 4.41062 
Ar 19.8035 10.6725 2.03432 
Ar 25.1508 6.16266 -1.06028 
Ar 23.488 8.94217 3.36708 
Ar 26.2088 13.1415 4.61001 
Ar 27.4888 9.67529 4.19477 
Ar 30.0928 13.2037 4.91181 
Ar 31.0439 9.81376 3.52207 
Ar 33.4404 14.0841 3.80917 
Ar -0.989673 17.2358 5.90361 
Ar 1.05697 20.7854 5.31331 
Ar 4.60062 13.9962 3.59894 
Ar 7.27147 18.3655 4.95587 
Ar 9.41518 15.3125 1.68728 
Ar 11.384 19.5102 3.22059 
Ar 14.3613 15.2742 4.35704 
Ar 14.6534 21.2951 2.90868 
Ar 16.8322 16.5706 1.9677 
Ar 18.1355 20.3056 1.27429 
Ar 20.0515 16.8238 3.83743 
Ar 19.7808 20.313 5.53526 
Ar 22.5357 12.812 3.50058 
Ar 25.2871 20.6694 2.96623 
Ar 24.3712 15.5922 1.93293 
Ar 29.0517 20.2689 3.49586 
Ar 31.0818 16.2736 2.59915 
Ar 32.2388 21.0529 1.88559 
Ar 1.60261 24.0008 4.11401 
Ar 2.99228 27.6553 2.82898 
Ar 5.66145 21.8806 5.54707 
Ar 6.26813 25.575 6.8463 
Ar 9.12178 23.2003 5.25339 
Ar 11.9043 28.3061 1.47109 
Ar 10.6252 26.1594 5.73608 
Ar 14.6918 26.4916 -0.000534801 
Ar 16.1161 25.3667 3.21505 
Ar 20.3797 27.7881 4.11011 
Ar 19.1634 24.0761 5.26733 
Ar 23.2478 29.4109 2.01477 
Ar 24.6939 26.4504 3.80394 
Ar 26.5918 29.488 5.60649 
Ar 27.1213 23.5133 4.52275 
Ar 29.1848 26.2901 5.52613 
Ar 30.0869 25.2579 1.4523 
Ar 32.5291 26.9427 3.11916 
Ar 4.84405 8.97247 10.9303 
Ar 6.17773 7.38959 6.03072 
Ar 7.21602 4.19678 4.59597 
Ar 10.8457 6.89538 5.53876 
Ar 11.498 2.93438 5.43416 
Ar 13.1434 5.39706 7.71209 
Ar 16.7036 3.50852 5.62632 
Ar 16.0845 8.17185 8.93528 
Ar 18.4805 2.75869 8.90039 
Ar 18.5308 6.24514 7.04973 
Ar 22.9368 0.493695 6.12413 
Ar 20.7213 6.961 4.54383 
Ar 25.1002 2.72701 8.89884 
Ar 28.6606 6.37104 9.4094 
Ar 28.5185 3.30294 7.09692 
Ar 32.0237 8.16303 10.1185 
Ar 32.6902 5.16 8.04451 
Ar 35.3005 10.008 8.6274 
Ar 6.79574 10.8677 7.88183 
Ar 7.45563 14.4789 5.52028 
Ar 9.34223 10.0171 4.69835 
Ar 10.0463 13.067 7.82888 
Ar 12.9681 10.0987 6.62135 
Ar 13.2484 14.0876 7.96999 
Ar 17.5402 11.9156 8.43796 
Ar 16.2812 15.2639 8.63266 
Ar 20.5047 10.8961 5.62259 
Ar 19.9035 14.591 7.26428 
Ar 23.4173 13.0898 7.10606 
Ar 25.7714 16.1185 7.89919 
Ar 26.4334 10.322 7.62531 
Ar 27.4895 16.34 3.61304 
Ar 30.3071 10.1867 7.06493 
Ar 30.9026 15.3605 9.67139 
Ar 33.7661 13.2851 8.0071 
Ar 37.2905 13.0729 6.90572 
Ar 3.64365 17.2942 5.18906 
Ar 4.59833 19.2797 8.31961 
Ar 7.98385 16.677 8.84581 
Ar 8.15483 20.1006 7.91828 
Ar 10.9629 16.2492 5.22919 
Ar 12.3296 23.8124 3.79659 
Ar 13.565 18.6569 6.05962 
Ar 15.4921 22.3425 6.28203 
Ar 17.3135 17.623 6.06546 
Ar 20.976 23.3852 9.37596 
Ar 21.8481 19.7383 9.24823 
Ar 23.3897 22.5115 6.67213 
Ar 23.1606 18.343 6.07397 
Ar 27.4088 21.1956 8.14281 
Ar 28.8798 17.6238 7.50665 
Ar 30.8587 23.4828 4.30679 
Ar 33.9329 18.8739 8.74131 
Ar 35.0932 22.8481 8.19135 
Ar 4.01034 26.2419 10.8615 
Ar 5.34112 29.712 9.66148 
Ar 8.74748 28.401 10.3041 
Ar 8.89895 30.8265 2.9066 
Ar 11.8659 21.8316 7.28542 
Ar 12.9003 28.8118 5.14289 
Ar 13.8611 26.0552 7.10388 
Ar 15.7732 30.1138 7.22112 
Ar 17.5149 25.2269 8.1472 
Ar 18.9656 28.5514 7.92972 
Ar 22.5089 26.3693 6.53713 
Ar 24.6236 28.6339 9.74102 
Ar 25.8467 26.3022 7.30268 
Ar 28.3264 28.6975 8.57834 
Ar 32.4683 26.5153 6.70908 
Ar 30.3374 29.7886 4.69813 
Ar 35.9903 27.335 7.29638 
Ar 35.2724 32.115 8.85144 
