216
#
Ar -0.877543 1.42198 -2.30919 
Ar 0.683122 1.28284 1.44377 
Ar -0.662783 -1.82392 -0.410139 
Ar 4.69161 2.22794 2.09876 
Ar 6.93217 -1.01057 2.55246 
Ar 8.52398 1.73543 -0.754023 
Ar 8.82004 -1.23362 -4.81353 
Ar 11.6503 3.00989 0.817322 
Ar 12.5004 0.0207406 -1.50473 
Ar 18.1324 2.27859 2.15875 
Ar 15.9262 0.71768 -0.730997 
Ar 21.4671 4.37577 -3.24555 
Ar 21.6284 1.37248 -1.38729 
Ar 25.5138 3.4499 0.376211 
Ar 26.4638 0.393222 1.56314 
Ar 28.5856 2.07122 -1.08713 
Ar 30.4521 0.0730596 2.24418 
Ar 31.3783 4.00968 0.282599 
Ar 2.60975 8.12269 5.79301 
Ar 1.684 9.03881 2.17648 
Ar 1.15748 5.7404 1.7574 
Ar 5.06529 13.319 -1.65801 
Ar 6.67549 4.26495 -2.0506 
Ar 10.3121 9.71176 -2.49833 
Ar 10.2598 5.42876 -1.77849 
Ar 13.9756 11.5874 -1.28665 
Ar 13.2405 7.5573 -1.37388 
Ar 16.1583 8.12882 1.49198 
Ar 19.9729 7.29838 -0.431364 
Ar 21.8187 12.1755 -0.345533 
Ar 22.554 9.37717 -2.4437 
Ar 25.4638 13.5895 0.572696 
Ar 26.5601 7.15847 2.67532 
Ar 28.306 13.8501 -1.70449 
Ar 27.7986 10.5932 -0.371412 
Ar 31.1273 11.9516 -0.0595327 
Ar 0.898046 14.1756 0.384612 
Ar 1.24695 17.5932 2.06681 
Ar 2.76874 16.2186 -2.79264 
Ar 4.20434 19.1528 1.92575 
Ar 4.67793 16.1854 0.142018 
Ar 7.83656 18.9279 0.351672 
Ar 13.503 15.8525 1.20233 
Ar 10.2359 16.6659 -1.56051 
Ar 17.1484 12.8719 1.07327 
Ar 14.4623 19.5409 1.32946 
Ar 20.2278 15.1861 0.691928 
Ar 19.8011 17.6888 -2.17492 
Ar 23.4139 16.8966 -2.14889 
Ar 23.2722 18.7231 1.69277 
Ar 26.9709 16.577 1.05666 
Ar 25.7818 19.2581 -1.36665 
Ar 28.5032 13.2828 2.29916 
Ar 30.0592 19.1788 1.49872 
Ar -0.411362 20.8415 -2.71413 
Ar -0.924555 23.6335 -0.504243 
Ar 2.85398 23.5028 -0.556111 
Ar 5.62012 25.1086 4.16028 
Ar 7.63926 22.8068 -0.406572 
Ar 9.81379 25.4218 3.22881 
Ar 11.247 20.0052 -0.856552 
Ar 10.2911 24.7719 -1.58268 
Ar 14.2171 22.9471 -2.05533 
Ar 18.5724 22.5105 1.95665 
Ar 17.1333 20.6853 -2.40082 
Ar 18.4476 26.2173 1.61651 
Ar 22.5913 25.1373 3.12853 
Ar 22.5456 27.037 -0.122322 
Ar 24.598 23.4116 -1.58241 
Ar 25.811 25.7032 0.901543 
Ar 27.897 22.3238 0.0424528 
Ar 28.941 24.0434 -4.01758 
Ar 1.15677 0.945112 5.43263 
Ar 3.08459 4.57752 4.77964 
Ar 4.82734 2.02239 6.87298 
Ar 4.78834 6.68358 2.24933 
Ar 8.23509 5.13802 1.32431 
Ar 12.2587 6.40772 2.14391 
Ar 13.7183 2.88607 4.44467 
Ar 15.3007 4.64431 0.800268 
Ar 15.8914 -0.827726 3.40076 
Ar 18.3387 5.83208 3.08596 
Ar 21.1939 3.88201 4.39993 
Ar 21.5719 4.10205 0.822043 
Ar 24.6166 3.6332 3.96586 
Ar 23.101 6.79397 6.19739 
Ar 28.4068 3.29722 2.50493 
Ar 30.8467 7.20026 2.86818 
Ar 31.9346 4.19792 4.22721 
Ar 29.8501 7.24814 7.14534 
Ar 4.11657 6.67136 9.74216 
Ar 5.27157 9.92724 3.86794 
Ar 8.6467 12.417 2.46289 
Ar 11.1724 13.2916 -0.403802 
Ar 8.11019 8.68265 0.798279 
Ar 11.5869 13.1431 3.91666 
Ar 12.8422 10.4643 2.47461 
Ar 16.6184 9.72212 4.52341 
Ar 14.9928 6.48597 4.88691 
Ar 18.6155 13.3906 4.31048 
Ar 19.5254 10.2519 2.2738 
Ar 24.4497 6.87825 -0.949067 
Ar 24.8172 10.3661 2.02892 
Ar 26.5848 13.2163 5.57061 
Ar 27.8433 10.09 3.96063 
Ar 30.5261 14.0537 5.63528 
Ar 31.5498 10.9958 3.98889 
Ar 34.3695 13.2723 4.41066 
Ar -0.661016 17.1761 5.11595 
Ar 2.05457 20.4582 5.62878 
Ar 4.50814 13.1888 2.22646 
Ar 6.77217 17.931 4.46867 
Ar 9.3889 16.1151 1.83959 
Ar 11.1936 19.4645 3.23351 
Ar 15.1111 13.9196 4.70063 
Ar 14.3335 17.9232 4.46003 
Ar 17.0387 16.5898 1.7926 
Ar 19.3828 19.1939 1.00131 
Ar 21.2868 16.9361 4.1156 
Ar 20.4188 20.4181 4.62467 
Ar 22.2487 12.7924 3.3165 
Ar 26.4918 19.6033 2.58135 
Ar 24.6088 16.009 3.73898 
Ar 29.9708 20.554 5.00851 
Ar 31.0297 15.5093 1.87509 
Ar 33.4683 21.0794 2.29944 
Ar 1.8273 24.0046 3.07898 
Ar 3.50012 28.1641 4.49176 
Ar 5.38672 22.6134 7.79063 
Ar 5.33713 26.0506 9.01951 
Ar 8.05275 21.5956 3.90789 
Ar 11.6432 28.1563 1.62843 
Ar 8.32381 24.796 6.5472 
Ar 14.6624 26.0711 0.0641051 
Ar 14.9666 24.5407 3.57437 
Ar 20.0806 28.034 4.18772 
Ar 19.2211 24.9606 5.42563 
Ar 22.3431 30.2279 2.17498 
Ar 24.9079 27.7701 3.89333 
Ar 26.8674 29.9406 6.15986 
Ar 26.7423 22.9679 3.66468 
Ar 28.4611 26.6863 4.6032 
Ar 29.9323 25.933 1.48949 
Ar 32.8108 27.12 3.33414 
Ar 4.22551 10.035 10.9161 
Ar 8.02648 6.80519 6.49038 
Ar 6.39297 4.09864 4.48466 
Ar 11.6804 6.69211 5.80054 
Ar 9.0204 2.3598 6.59118 
Ar 14.5226 3.27273 8.39817 
Ar 18.0983 2.37613 6.2932 
Ar 16.7054 6.79323 9.20595 
Ar 18.4977 3.73896 9.85498 
Ar 19.247 6.98291 6.3391 
Ar 22.929 0.757657 6.24044 
Ar 22.1601 7.5708 2.36957 
Ar 25.1347 3.58041 7.6358 
Ar 27.9842 6.25818 10.1638 
Ar 28.7192 3.88121 6.49296 
Ar 31.7397 7.19152 10.1866 
Ar 33.2687 4.82699 7.55835 
Ar 33.9509 9.78684 9.62246 
Ar 6.40511 9.78206 7.77612 
Ar 5.65605 13.704 5.62251 
Ar 8.84258 9.87257 4.91653 
Ar 8.96595 13.006 6.68581 
Ar 13.7908 9.53194 7.00199 
Ar 12.9854 14.6322 7.47308 
Ar 17.6469 11.1999 7.58485 
Ar 15.9313 15.3681 9.40687 
Ar 20.7697 10.1002 5.35624 
Ar 20.2077 14.3173 7.2615 
Ar 23.8724 12.9955 7.74557 
Ar 26.4676 16.6203 7.11861 
Ar 25.9531 8.90784 6.92167 
Ar 28.9889 17.0644 4.23329 
Ar 30.0012 11.2084 7.22782 
Ar 32.318 17.5294 9.66467 
Ar 32.9878 13.8699 7.89696 
Ar 36.1973 11.4021 7.01837 
Ar 3.27058 16.2428 4.79222 
Ar 4.99976 18.678 8.03955 
Ar 7.24634 16.0306 8.05114 
Ar 8.8091 19.5737 7.34062 
Ar 10.1019 16.353 5.69325 
Ar 12.5511 22.7954 1.13411 
Ar 13.8854 19.2434 7.55821 
Ar 16.6808 21.4676 5.14171 
Ar 17.5168 16.8856 5.72714 
Ar 20.0227 24.1995 10.1835 
Ar 22.3096 20.2282 9.53541 
Ar 24.1239 23.3865 5.95329 
Ar 23.5566 19.2209 5.77649 
Ar 26.9094 20.3233 6.34187 
Ar 28.8272 17.7603 9.13879 
Ar 31.5965 23.6109 4.22307 
Ar 35.1822 19.6214 9.96246 
Ar 33.9904 24.375 6.78547 
Ar 2.96746 27.1546 12.0091 
Ar 5.04561 29.525 9.99612 
Ar 8.23123 27.4855 10.3106 
Ar 9.30246 30.909 3.15613 
Ar 11.5491 21.7629 6.589 
Ar 12.4927 29.2571 5.7619 
Ar 13.0281 25.0751 6.49354 
Ar 16.0948 28.3517 7.08391 
Ar 16.954 24.9859 8.6115 
Ar 19.0435 28.4204 8.80666 
Ar 21.9708 26.8264 7.11659 
Ar 24.92 29.4384 9.22197 
Ar 25.5749 26.241 7.6971 
Ar 28.5146 27.792 9.10341 
Ar 31.5323 27.5091 6.83705 
Ar 30.537 30.3851 5.63096 
Ar 35.0783 27.8653 8.28543 
Ar 35.6689 32.1603 9.73142 
