216
#
Ar 0.279231 -0.147165 -0.496087 
Ar 1.9828 3.06034 1.33818 
Ar 3.99023 -0.386165 0.479311 
Ar 5.31779 2.87436 0.426931 
Ar 7.89986 -0.0517617 0.965177 
Ar 9.36989 2.62018 -1.09762 
Ar 11.6946 -1.53267 -1.95709 
Ar 12.556 4.27448 -0.718321 
Ar 13.8894 0.0912031 0.951113 
Ar 16.8398 4.52896 0.229263 
Ar 17.6187 -0.0899272 -0.163167 
Ar 21.4971 4.96862 0.210892 
Ar 21.4607 -0.199197 0.652227 
Ar 25.0576 3.33639 1.34792 
Ar 26.2312 0.248034 0.340603 
Ar 28.6388 3.56365 -0.741842 
Ar 29.8311 0.126302 0.663026 
Ar 32.1636 3.14769 -1.07638 
Ar -0.0194365 6.48614 1.16806 
Ar 1.82295 12.2846 -0.0646881 
Ar 3.5567 6.27915 0.718833 
Ar 5.26079 9.95302 0.555956 
Ar 7.01547 5.84376 -0.593248 
Ar 8.86661 11.6768 -0.185312 
Ar 9.41261 8.39956 0.046239 
Ar 12.8312 11.6498 0.316754 
Ar 13.4459 7.85423 -1.54905 
Ar 16.2074 10.1605 -0.204362 
Ar 18.6935 7.48224 0.150583 
Ar 19.6297 11.6556 -0.0596716 
Ar 22.3962 8.31692 -0.750906 
Ar 23.4801 11.9921 -0.959381 
Ar 26.0983 6.65255 0.587833 
Ar 27.1355 11.8676 -0.294132 
Ar 28.8841 8.75076 -0.0374752 
Ar 31.0139 11.9181 -0.783351 
Ar -0.203122 15.5755 -0.0154296 
Ar 1.64777 18.7534 -0.126738 
Ar 3.70233 15.6198 -0.562793 
Ar 5.54779 18.2674 0.451294 
Ar 7.35368 15.4571 -1.27329 
Ar 9.48967 18.4893 0.510401 
Ar 10.6499 14.6054 0.626719 
Ar 12.8876 17.2471 1.51472 
Ar 15.609 14.2714 0.33626 
Ar 16.6183 18.6364 -1.26871 
Ar 18.6635 15.6743 -0.240098 
Ar 19.8427 18.9463 0.860115 
Ar 22.2603 15.595 0.273295 
Ar 23.7551 18.8729 1.02051 
Ar 25.8113 15.4001 -0.142941 
Ar 27.2256 19.2432 -1.08032 
Ar 29.1717 14.5393 1.01611 
Ar 29.8266 18.1604 1.00645 
Ar -0.506699 22.7134 -1.36486 
Ar 1.47806 25.8263 -0.489327 
Ar 3.07497 21.7563 -0.528033 
Ar 4.77197 24.8712 0.65925 
Ar 6.98164 21.7234 0.19699 
Ar 8.24755 25.4148 -0.169339 
Ar 10.5763 22.3882 0.843018 
Ar 12.649 25.2617 0.59711 
Ar 13.9202 20.964 0.0394005 
Ar 16.5062 25.0337 -0.389447 
Ar 17.7311 21.854 -0.281416 
Ar 19.8429 26.1456 -0.323786 
Ar 21.832 22.7799 0.643549 
Ar 23.8699 26.4129 1.22176 
Ar 25.3489 23.4886 -0.266206 
Ar 27.5506 26.3107 0.15094 
Ar 29.21 22.9603 0.867731 
Ar 31.036 26.1439 -0.766075 
Ar 1.8369 0.53051 4.01199 
Ar 3.11467 3.81449 4.87425 
Ar 5.66023 0.396718 3.57931 
Ar 6.82608 4.46182 3.26867 
Ar 9.48495 2.04675 3.28289 
Ar 10.3761 5.56855 3.41822 
Ar 13.2824 3.0257 3.36474 
Ar 14.7964 6.27373 2.60327 
Ar 17.0933 2.32591 2.95167 
Ar 18.4988 5.71686 4.01656 
Ar 20.5838 2.3778 3.37649 
Ar 22.3605 5.68778 3.66002 
Ar 23.9898 2.10652 4.70225 
Ar 26.4061 5.34077 4.43499 
Ar 27.625 1.8922 3.71116 
Ar 29.7816 5.42886 2.25205 
Ar 31.8584 2.26991 2.63798 
Ar 31.4706 6.9037 5.14205 
Ar 1.71569 8.88255 4.31243 
Ar 3.48304 12.6968 3.95783 
Ar 5.90905 9.14782 4.29224 
Ar 7.05714 12.4707 3.39521 
Ar 9.49874 9.1773 3.89396 
Ar 10.9695 12.4886 3.9812 
Ar 13.3521 9.82739 3.65809 
Ar 14.7855 13.0989 4.08319 
Ar 17.2161 8.98035 3.21565 
Ar 18.4458 12.3665 3.61507 
Ar 20.9088 8.6371 3.00348 
Ar 21.8868 12.4983 2.89363 
Ar 25.1204 10.4482 2.01476 
Ar 26.3409 13.6156 3.46272 
Ar 27.8262 8.99558 4.1814 
Ar 29.5408 12.3671 4.81284 
Ar 31.3178 10.1698 2.26811 
Ar 32.9576 13.2181 3.2675 
Ar 1.17473 16.7437 2.77681 
Ar 3.13444 20.0187 2.90727 
Ar 5.10426 15.7444 3.25061 
Ar 6.36916 18.6792 4.08099 
Ar 8.9555 16.1247 4.01832 
Ar 9.98512 19.5295 4.19132 
Ar 12.629 15.7928 4.77171 
Ar 14.1338 20.2568 3.56041 
Ar 16.0649 16.8007 2.99709 
Ar 17.9414 21.104 3.32861 
Ar 19.7725 16.8173 3.66118 
Ar 21.6811 19.8541 3.75604 
Ar 23.1983 15.9177 3.99549 
Ar 25.8104 21.4226 2.68497 
Ar 26.8859 17.3613 3.04488 
Ar 28.7372 20.0229 4.42225 
Ar 30.5733 16.3903 4.89114 
Ar 32.6769 20.9015 2.75775 
Ar 1.87328 23.9519 2.77165 
Ar 3.60285 26.7092 3.47584 
Ar 5.05956 22.3982 4.62994 
Ar 7.94035 26.3843 3.37429 
Ar 8.28671 22.5021 3.48888 
Ar 10.9073 27.9095 2.73822 
Ar 11.6635 24.672 5.01098 
Ar 15.7912 27.6594 3.66536 
Ar 15.5925 23.6038 4.06289 
Ar 19.5212 26.7029 3.15631 
Ar 20.7426 23.6823 4.0104 
Ar 22.4421 28.2828 4.31328 
Ar 24.4691 25.0301 4.35678 
Ar 26.2368 28.3846 5.37311 
Ar 27.9178 23.8902 4.60832 
Ar 29.008 27.3638 3.65495 
Ar 31.357 24.2552 3.49667 
Ar 32.4858 27.5773 2.48566 
Ar 3.89749 4.35307 8.58361 
Ar 5.05277 7.45685 7.436 
Ar 6.94284 2.81689 6.50846 
Ar 9.10274 6.38085 7.22173 
Ar 11.0904 2.90591 7.1062 
Ar 12.5427 7.27256 5.99423 
Ar 14.9319 5.20799 7.54137 
Ar 16.347 8.64577 7.38687 
Ar 18.3653 3.60314 7.80709 
Ar 20.1952 7.23392 7.59053 
Ar 21.7131 2.57122 8.2128 
Ar 23.6694 6.46083 6.88096 
Ar 25.1013 3.09136 7.96775 
Ar 27.0512 6.44022 7.79263 
Ar 29.731 3.91815 6.07933 
Ar 30.6211 6.10929 8.73026 
Ar 33.4065 2.9408 6.66399 
Ar 34.4623 7.55915 8.65704 
Ar 3.83869 11.2011 7.53547 
Ar 5.55503 14.4209 6.75054 
Ar 7.69785 11.1873 7.25485 
Ar 9.94473 14.3527 7.25752 
Ar 10.8772 10.0604 7.98733 
Ar 13.1665 15.2271 8.6952 
Ar 14.483 11.9654 8.07167 
Ar 17.0581 15.144 6.16147 
Ar 18.2132 12.2521 7.82272 
Ar 20.7041 15.0174 7.61136 
Ar 21.7051 10.9164 6.18428 
Ar 24.1284 15.0945 7.64625 
Ar 25.4109 10.1744 6.51766 
Ar 27.5925 15.711 7.38472 
Ar 29.0742 10.1342 7.6186 
Ar 31.0971 14.617 8.10137 
Ar 32.4794 11.5461 6.35119 
Ar 34.7989 14.3346 6.72024 
Ar 3.89314 17.7014 6.98579 
Ar 5.4551 22.7326 8.26164 
Ar 7.11826 18.2983 7.50135 
Ar 8.58146 21.5989 6.73872 
Ar 10.832 18.1764 7.84338 
Ar 12.7338 20.9881 7.46454 
Ar 14.8206 18.1972 6.24594 
Ar 16.558 21.2992 7.03083 
Ar 19.1435 18.4002 7.0934 
Ar 20.3295 21.7365 8.01666 
Ar 22.5808 18.6844 8.44251 
Ar 24.4075 21.6828 6.01561 
Ar 25.5526 18.2688 6.33931 
Ar 27.9567 22.2613 8.05661 
Ar 29.9716 18.6882 7.91699 
Ar 31.9133 21.9109 6.15116 
Ar 33.2832 17.6945 7.44839 
Ar 35.5086 20.985 6.38551 
Ar 4.43521 26.2081 7.93132 
Ar 6.52467 29.1506 8.69946 
Ar 8.00344 25.4061 7.10903 
Ar 9.52332 28.5834 6.32301 
Ar 11.2026 23.951 8.68155 
Ar 12.9161 29.2736 5.80398 
Ar 14.7642 24.4168 7.27416 
Ar 16.2146 29.9087 6.82785 
Ar 18.3823 24.5211 6.18214 
Ar 19.8849 28.693 7.51716 
Ar 22.0441 24.8365 7.70431 
Ar 23.5444 28.7045 8.03303 
Ar 25.7611 25.4056 7.60433 
Ar 28.4088 29.9527 8.49297 
Ar 29.6617 26.0562 6.65316 
Ar 31.0672 29.684 5.4897 
Ar 33.2391 26.3542 5.99878 
Ar 35.8951 29.5984 7.84316 
