216
#
Ar -0.983151 1.17256 -2.20598 
Ar 1.26656 1.43632 1.84287 
Ar 2.11563 -0.754528 -0.932874 
Ar 5.30503 2.44524 1.66372 
Ar 7.23542 -2.14425 1.63555 
Ar 9.79691 1.16274 -0.686611 
Ar 8.9044 0.375775 -4.05226 
Ar 13.1178 3.49117 -0.630421 
Ar 13.057 0.40162 -2.30757 
Ar 18.6099 4.03697 0.211188 
Ar 16.1094 1.50949 -0.206812 
Ar 22.2423 4.8115 -1.2128 
Ar 21.2944 1.48652 0.399242 
Ar 24.4188 3.25148 0.937187 
Ar 26.5019 0.352349 1.98817 
Ar 28.6868 2.51843 0.0523546 
Ar 30.7017 -0.407063 1.37739 
Ar 31.4722 4.36596 0.0278906 
Ar 0.484636 7.42648 4.19589 
Ar 1.77977 10.8717 2.00005 
Ar 2.12447 4.82336 1.83639 
Ar 4.6906 12.3392 0.304896 
Ar 7.03549 3.2976 -1.88201 
Ar 8.19213 8.12803 -2.2708 
Ar 10.2696 5.48448 -0.777762 
Ar 11.6062 11.3013 -0.334501 
Ar 12.8257 7.35727 0.062414 
Ar 17.184 10.9377 2.96747 
Ar 19.8447 7.33438 -0.1569 
Ar 20.0085 10.7898 -0.795971 
Ar 22.5114 8.59907 -2.50791 
Ar 24.5761 11.6026 -0.353517 
Ar 25.1747 6.14854 2.82967 
Ar 27.957 13.0802 -2.67078 
Ar 27.4841 9.63329 0.213012 
Ar 30.946 11.7539 -0.479046 
Ar 1.32103 13.5702 -0.568849 
Ar 0.634063 17.7546 0.792896 
Ar 3.78902 16.1653 -0.451347 
Ar 4.53503 18.6813 2.34712 
Ar 6.41173 15.3507 1.58871 
Ar 7.76007 19.0807 1.2793 
Ar 11.4524 14.9306 0.408756 
Ar 11.6628 18.7783 -0.205549 
Ar 14.5726 14.0992 2.07072 
Ar 15.9228 18.8694 -0.686405 
Ar 18.017 14.6695 0.36997 
Ar 19.5035 17.935 -1.04241 
Ar 22.0543 14.4766 0.102831 
Ar 23.0517 18.248 0.687912 
Ar 29.4047 15.7605 -0.320179 
Ar 26.1184 19.5016 -0.98908 
Ar 28.4631 12.6724 1.731 
Ar 30.0869 19.5315 -0.554389 
Ar -1.40243 21.9478 -2.31191 
Ar 0.746096 25.1309 0.0655804 
Ar 2.56511 22.1178 -0.000829504 
Ar 5.08565 23.4015 2.7851 
Ar 7.00672 22.2684 -0.00426533 
Ar 9.57231 24.8362 2.16312 
Ar 10.4519 21.8843 0.337377 
Ar 12.5096 24.7813 -0.185239 
Ar 14.7401 22.2824 -1.7562 
Ar 18.3642 24.6368 -0.382631 
Ar 18.2279 21.25 -2.00288 
Ar 19.0749 28.2209 -1.31695 
Ar 21.1548 22.1601 0.846582 
Ar 21.9843 25.935 0.529667 
Ar 24.8584 22.8602 -1.28393 
Ar 27.5176 25.9398 1.02683 
Ar 28.198 22.1571 0.392685 
Ar 30.2648 25.8572 -1.56208 
Ar 1.54717 1.76793 6.24554 
Ar 4.56694 4.64851 4.44312 
Ar 5.63649 0.0313578 4.9921 
Ar 7.26406 5.93865 2.43744 
Ar 10.3456 3.66858 2.6045 
Ar 12.5793 5.99756 3.88615 
Ar 13.8513 2.92084 2.69323 
Ar 15.7793 5.92509 1.33724 
Ar 16.7897 1.34784 3.11525 
Ar 18.5605 6.36634 3.81081 
Ar 20.7059 2.16502 4.40508 
Ar 21.8358 4.88457 2.87277 
Ar 24.5001 3.06599 4.81321 
Ar 26.8602 6.23331 6.23983 
Ar 28.2903 3.05062 3.65007 
Ar 28.7301 6.32333 2.15404 
Ar 31.9751 4.39078 3.66781 
Ar 30.3575 6.69032 6.18625 
Ar 2.78991 6.76267 6.8732 
Ar 3.01174 10.8221 5.50034 
Ar 4.11131 8.13383 2.16519 
Ar 8.89985 12.7852 1.35867 
Ar 9.98122 8.88815 1.3908 
Ar 11.0368 12.5956 4.67595 
Ar 13.6873 10.03 2.79246 
Ar 14.6077 12.6913 5.59691 
Ar 15.6064 8.96883 5.84331 
Ar 18.1927 14.2699 4.33951 
Ar 20.5756 9.70601 3.17583 
Ar 23.3 8.61175 0.881452 
Ar 23.6747 8.81603 4.876 
Ar 25.4652 12.0378 4.87345 
Ar 27.3962 9.07481 4.31121 
Ar 30.1823 12.5296 5.07755 
Ar 30.9377 8.83716 1.97321 
Ar 31.7023 14.0849 2.15341 
Ar 0.620206 16.7249 4.96094 
Ar 1.71647 20.0922 4.16092 
Ar 2.92574 15.0458 2.66784 
Ar 6.97184 18.1554 4.84499 
Ar 9.73877 16.0432 3.65139 
Ar 10.7841 19.7841 3.69445 
Ar 13.5613 16.9039 4.84777 
Ar 15.0476 20.8605 2.19186 
Ar 16.9013 17.058 2.71345 
Ar 18.7225 21.4955 3.21711 
Ar 20.4433 17.6332 3.26428 
Ar 21.8102 20.6982 4.96591 
Ar 21.5632 13.2914 3.64604 
Ar 24.81 21.669 2.25822 
Ar 25.7367 15.8693 1.32401 
Ar 28.0194 19.4881 4.04552 
Ar 30.6484 17.2395 2.97513 
Ar 32.3437 21.3458 1.43674 
Ar 1.19298 23.8506 3.18639 
Ar 3.77489 27.0906 2.18628 
Ar 4.44846 21.3863 5.96004 
Ar 5.83433 26.1155 6.03491 
Ar 8.22008 22.9001 4.8278 
Ar 12.0436 28.1691 0.881269 
Ar 10.5415 26.5321 5.606 
Ar 15.4099 27.0302 0.851257 
Ar 17.0744 24.5603 3.36491 
Ar 18.8149 27.3585 2.34819 
Ar 21.0307 24.6051 4.73654 
Ar 22.7906 28.9642 3.00099 
Ar 24.4541 25.8021 3.33427 
Ar 25.8623 29.0855 5.73687 
Ar 27.6055 23.9722 4.0791 
Ar 28.603 27.5807 4.18649 
Ar 31.0153 24.7885 2.57812 
Ar 33.5744 27.5732 2.84447 
Ar 5.16023 5.92403 10.3672 
Ar 6.1616 7.75994 5.59667 
Ar 7.89123 3.04114 5.1655 
Ar 9.58176 6.48329 5.63234 
Ar 10.9262 3.49938 7.31584 
Ar 13.0683 6.41793 7.64632 
Ar 14.8907 3.13212 6.28574 
Ar 16.2754 8.59361 9.7175 
Ar 18.9193 2.93625 7.48733 
Ar 18.6745 7.92406 6.98168 
Ar 22.5729 1.29563 7.49578 
Ar 21.8555 5.87035 6.38841 
Ar 25.1973 3.51009 8.25384 
Ar 28.8611 6.66109 9.3158 
Ar 29.1274 2.87464 7.27952 
Ar 32.2308 8.89413 8.92832 
Ar 32.8838 4.64268 7.6351 
Ar 35.6308 9.77417 9.06958 
Ar 6.37041 11.0693 7.66703 
Ar 7.32559 13.9179 5.55468 
Ar 8.69531 10.0692 4.42239 
Ar 8.84964 13.0351 8.76469 
Ar 12.372 10.2848 7.2874 
Ar 13.0253 14.6989 8.14994 
Ar 16.3282 12.12 9.63055 
Ar 16.1772 15.5964 7.16661 
Ar 18.7202 11.5096 6.42245 
Ar 19.9026 14.5562 7.95608 
Ar 22.277 11.9059 7.20468 
Ar 24.4348 14.7526 7.08442 
Ar 25.8619 9.56584 7.84075 
Ar 27.993 15.4728 5.37206 
Ar 29.1975 10.0524 7.29598 
Ar 32.1304 15.2028 8.06852 
Ar 33.1172 11.6224 7.37651 
Ar 36.5815 14.1325 7.40421 
Ar 3.90414 17.4875 5.96894 
Ar 4.69395 19.5071 9.29003 
Ar 6.38812 16.1781 8.36356 
Ar 8.30495 20.225 7.70275 
Ar 9.90713 17.0754 7.49879 
Ar 13.2037 24.4374 3.57773 
Ar 13.8991 18.8796 7.54702 
Ar 15.5955 21.5157 5.68824 
Ar 18.3199 18.4295 6.20969 
Ar 21.1246 23.982 8.12804 
Ar 22.8554 18.4228 8.14193 
Ar 24.5794 22.9235 6.09636 
Ar 24.6069 18.0895 4.31831 
Ar 28.1002 21.8927 7.23872 
Ar 30.6038 18.9452 7.04587 
Ar 31.0442 21.5259 4.82476 
Ar 34.3646 20.161 7.83391 
Ar 35.1033 24.1501 7.76409 
Ar 4.50165 25.5303 10.1105 
Ar 5.8776 28.8373 9.76927 
Ar 8.99344 26.0493 9.48541 
Ar 9.37791 29.387 3.11217 
Ar 10.8906 23.3317 8.08791 
Ar 13.0848 28.9749 4.85105 
Ar 13.8452 26.2201 7.3113 
Ar 16.3893 29.0502 7.36563 
Ar 17.5813 25.2997 7.01522 
Ar 20.0187 28.0139 5.68068 
Ar 23.3185 26.8719 7.40879 
Ar 24.0705 28.5619 10.3129 
Ar 26.7967 25.4035 7.84377 
Ar 28.0061 28.5498 9.07002 
Ar 32.0399 25.9622 6.06642 
Ar 31.5319 30.2904 4.56448 
Ar 35.4013 27.6663 6.17533 
Ar 35.4827 32.4736 9.56638 
