216
#
Ar -0.927682 1.26229 -2.36871 
Ar 1.33897 0.89469 2.45066 
Ar 1.79841 -0.784242 -0.947088 
Ar 4.69732 1.84735 1.64483 
Ar 6.77287 -0.754624 2.83618 
Ar 8.44776 1.46403 0.386602 
Ar 8.29999 0.462335 -3.85258 
Ar 12.6533 2.99863 -1.1665 
Ar 12.6474 -0.717959 -1.90306 
Ar 18.5533 1.98498 1.57192 
Ar 14.8746 0.917954 0.197821 
Ar 21.448 3.70115 -3.24988 
Ar 21.6023 1.01369 -0.594518 
Ar 24.5657 2.09919 1.40701 
Ar 27.5404 -0.0690535 1.7505 
Ar 28.4326 2.92652 -0.557256 
Ar 31.2453 0.0471342 0.954123 
Ar 32.4931 3.5794 0.368905 
Ar 0.660529 7.83839 4.69372 
Ar 1.81582 9.79605 1.53159 
Ar 2.74553 6.01735 1.21012 
Ar 5.65306 12.8979 -0.485492 
Ar 6.12254 4.01334 -1.6989 
Ar 9.32658 9.62141 -1.92719 
Ar 9.2368 5.30689 -2.13354 
Ar 12.5455 11.1403 -0.510413 
Ar 12.1284 7.54367 -0.230691 
Ar 17.2608 9.69837 1.50019 
Ar 19.8725 6.81989 0.0558376 
Ar 20.4894 11.4664 -1.11441 
Ar 22.2382 8.75011 -3.43532 
Ar 23.6167 11.7803 1.66125 
Ar 26.859 6.59344 2.27863 
Ar 28.2517 13.5711 -3.20259 
Ar 28.2262 9.46079 0.475172 
Ar 31.722 12.3646 -0.752837 
Ar 2.20446 13.4345 -0.631385 
Ar 0.671293 18.0986 1.04782 
Ar 2.26074 16.763 -1.91363 
Ar 4.24732 18.9766 2.30923 
Ar 6.37042 16.2371 1.53622 
Ar 7.9057 20.1809 0.99135 
Ar 12.1121 15.2697 0.569182 
Ar 11.4306 18.2678 -1.06752 
Ar 14.8355 13.2311 1.8096 
Ar 15.9818 19.4936 -1.16952 
Ar 18.7052 14.034 1.04565 
Ar 19.2202 17.8969 -1.32438 
Ar 21.8881 15.4837 0.249172 
Ar 22.3987 19.998 0.0391184 
Ar 28.6127 15.9292 -0.493421 
Ar 26.5618 19.1906 -0.462253 
Ar 27.4289 12.5772 1.6514 
Ar 30.4631 19.0212 -1.1283 
Ar -1.79342 22.6511 -1.62214 
Ar 0.947478 24.7813 0.425816 
Ar 2.95516 21.9376 0.936816 
Ar 5.99562 24.694 2.55515 
Ar 8.75639 23.5724 -0.351355 
Ar 9.21412 25.7734 2.47785 
Ar 11.2476 21.5665 1.07985 
Ar 11.7731 25.0013 -1.5164 
Ar 14.7477 22.8311 -1.92192 
Ar 17.6189 23.3743 0.439472 
Ar 18.6972 21.3572 -2.79018 
Ar 18.493 28.0725 -0.287713 
Ar 21.5093 24.214 1.72667 
Ar 21.7775 26.5771 -1.51547 
Ar 25.1072 23.0645 -1.02371 
Ar 27.0142 25.5647 0.5632 
Ar 28.1894 22.1276 0.832153 
Ar 29.7728 25.8574 -2.07905 
Ar 1.29771 1.07217 6.06991 
Ar 3.83891 4.42293 5.62304 
Ar 4.80603 1.13229 5.50371 
Ar 6.18479 5.03179 1.89543 
Ar 9.42325 4.6209 2.70063 
Ar 13.3076 6.42073 3.0846 
Ar 12.5264 2.52562 2.54453 
Ar 16.0706 4.99171 0.607556 
Ar 16.3644 0.317789 3.75015 
Ar 18.4944 6.93929 3.49034 
Ar 19.6045 2.75142 4.75534 
Ar 21.6564 4.02602 1.51989 
Ar 24.1068 3.59638 4.85767 
Ar 26.3511 6.39837 6.77029 
Ar 27.6035 2.96974 3.29579 
Ar 30.7323 6.46279 1.29446 
Ar 31.5097 3.17638 3.51956 
Ar 29.9141 6.23569 5.04176 
Ar 3.01134 6.48116 8.87884 
Ar 3.31377 10.4916 4.95991 
Ar 6.10067 10.3446 2.57555 
Ar 9.28726 12.9941 1.37229 
Ar 8.87533 8.60583 1.40311 
Ar 11.1671 13.5747 4.71569 
Ar 12.9914 10.7289 3.04943 
Ar 16.1573 11.3261 4.78065 
Ar 15.8505 7.75625 6.02832 
Ar 17.6637 15.0219 4.4792 
Ar 20.7936 9.7772 2.45569 
Ar 23.9763 7.8225 0.331872 
Ar 24.1348 9.27822 4.15923 
Ar 25.6922 12.4696 5.07348 
Ar 27.968 9.33269 5.19718 
Ar 29.8731 12.4363 4.62044 
Ar 31.2991 10.1313 2.41344 
Ar 32.8366 13.3274 2.93034 
Ar -0.704868 15.9559 5.63117 
Ar -0.106408 19.697 4.73468 
Ar 3.9324 13.7813 3.59942 
Ar 7.03091 18.5707 4.79838 
Ar 9.62055 16.9422 2.51211 
Ar 10.8602 19.8321 4.22747 
Ar 13.9838 15.5659 4.24874 
Ar 14.6157 21.3784 1.29233 
Ar 16.7776 17.5304 2.52809 
Ar 18.6279 20.9468 3.17792 
Ar 20.4915 16.9593 3.15005 
Ar 21.9825 20.3968 4.25698 
Ar 21.7236 13.6887 4.22799 
Ar 24.6911 21.7607 2.63437 
Ar 25.218 15.2047 1.2059 
Ar 27.4604 19.9189 4.13894 
Ar 30.2033 17.2362 2.7954 
Ar 32.3235 21.4939 1.80147 
Ar 1.77593 23.8245 3.63637 
Ar 3.44323 27.3725 2.73388 
Ar 4.60466 20.999 6.38999 
Ar 6.58276 26.1271 6.16121 
Ar 7.57418 21.9905 3.85218 
Ar 11.991 28.2223 1.61874 
Ar 10.2639 26.5795 5.93466 
Ar 15.2828 26.5547 0.366392 
Ar 16.6419 25.5744 4.02787 
Ar 19.5124 27.7854 3.36578 
Ar 20.1738 23.4249 5.11341 
Ar 22.9667 28.9133 3.27225 
Ar 24.889 25.5419 3.25253 
Ar 25.9979 29.653 5.75408 
Ar 27.3271 23.3926 4.54114 
Ar 28.5162 26.4962 4.50812 
Ar 30.2937 24.9089 1.80039 
Ar 32.9005 27.1268 3.23427 
Ar 5.4157 8.55698 10.1816 
Ar 5.84561 7.37954 6.76802 
Ar 7.43023 3.96181 5.63575 
Ar 10.1052 7.37894 5.63004 
Ar 10.954 3.1421 6.39188 
Ar 12.9978 5.99732 7.45114 
Ar 14.6555 2.30134 6.0965 
Ar 16.0728 9.00371 9.24596 
Ar 18.1416 3.05317 9.45292 
Ar 18.5661 6.34621 7.69366 
Ar 22.8055 0.31419 6.95618 
Ar 22.024 6.25879 4.64196 
Ar 25.2445 2.86695 8.21767 
Ar 29.4212 6.09969 8.95551 
Ar 29.0433 3.22739 7.11158 
Ar 32.7133 7.91784 9.5717 
Ar 32.8093 4.41815 7.75095 
Ar 35.5226 10.0775 8.83957 
Ar 6.14348 10.7856 7.5195 
Ar 7.20932 14.8721 5.11389 
Ar 9.14978 10.7384 5.12935 
Ar 9.32422 12.9639 8.01894 
Ar 12.5056 9.92275 7.05329 
Ar 12.5306 13.8382 8.24767 
Ar 16.383 12.5572 9.65955 
Ar 16.6229 16.1961 8.08601 
Ar 19.9969 10.8038 6.04713 
Ar 19.9727 14.7683 7.31747 
Ar 23.4012 12.5872 7.86947 
Ar 25.6971 16.2465 8.02021 
Ar 26.2219 10.5247 8.04336 
Ar 27.2675 15.7828 4.49622 
Ar 30.4296 10.2881 7.68812 
Ar 31.8933 15.8371 9.26397 
Ar 33.3443 12.7119 7.13845 
Ar 37.3969 14.2087 7.15728 
Ar 2.9058 17.5062 5.49307 
Ar 4.96997 19.3148 9.50423 
Ar 7.49777 15.8755 9.1299 
Ar 8.69901 20.334 8.19062 
Ar 10.1987 16.7097 6.96062 
Ar 12.8156 24.9457 2.65099 
Ar 14.5058 18.5738 6.65641 
Ar 16.0698 21.977 5.42051 
Ar 19.6832 18.3648 6.18204 
Ar 21.6159 22.767 9.36553 
Ar 22.7595 19.1683 7.68491 
Ar 24.5181 22.1151 6.13519 
Ar 24.3593 17.7632 4.5492 
Ar 27.8567 21.6847 8.18686 
Ar 29.0059 17.3788 7.17563 
Ar 30.6196 22.6547 4.78607 
Ar 33.2195 19.6953 8.29694 
Ar 34.6156 22.9828 7.57754 
Ar 4.52187 25.5511 10.3562 
Ar 5.1028 29.5907 9.37985 
Ar 8.36787 27.3441 10.3683 
Ar 9.70887 30.1906 3.81692 
Ar 12.1251 22.0744 6.86005 
Ar 13.0215 28.7781 5.05653 
Ar 14.4801 25.2463 6.50188 
Ar 15.7902 28.3788 7.93683 
Ar 17.9624 25.0278 7.94829 
Ar 19.2899 28.1166 7.12995 
Ar 22.7156 26.1453 6.30952 
Ar 24.903 29.0223 9.85392 
Ar 26.2936 25.813 7.81361 
Ar 28.6164 29.1706 8.34455 
Ar 32.6197 25.4372 6.44836 
Ar 30.3274 29.571 5.16166 
Ar 35.781 26.7126 6.68188 
Ar 35.6631 32.178 9.79014 
