216
#
Ar -0.677608 1.16184 -2.28392 
Ar 1.26139 1.68778 1.83408 
Ar 2.35393 -0.940962 -0.848369 
Ar 5.58639 2.51535 1.55508 
Ar 7.04586 -2.20381 1.42922 
Ar 9.63668 1.26348 -0.248743 
Ar 9.15195 -0.032988 -4.06167 
Ar 13.3237 3.57328 -0.719119 
Ar 13.2941 0.392854 -2.27286 
Ar 18.5825 3.98323 -0.186808 
Ar 16.1986 1.48261 -0.406519 
Ar 21.9225 4.54966 -1.12124 
Ar 21.2743 1.51672 0.295114 
Ar 24.4791 2.91032 1.05605 
Ar 26.2713 0.242128 2.38161 
Ar 28.3093 2.42577 0.0424673 
Ar 30.3705 -0.268685 1.21446 
Ar 31.3682 4.46838 0.0423253 
Ar 0.499674 7.62534 4.13858 
Ar 1.58349 10.8625 2.00919 
Ar 2.1811 4.97397 2.15588 
Ar 4.6981 12.5757 0.36154 
Ar 7.24694 3.38851 -2.16378 
Ar 8.15333 7.96255 -2.10588 
Ar 9.83453 5.03636 -0.643021 
Ar 11.8538 11.6088 -0.482765 
Ar 12.8102 7.35394 0.065017 
Ar 17.1641 11.1002 2.96368 
Ar 20.0235 7.34539 -0.199803 
Ar 19.9842 11.3197 -0.900873 
Ar 22.5808 8.8232 -2.43475 
Ar 24.1739 11.8724 -0.903839 
Ar 25.2852 6.21305 3.00411 
Ar 27.6822 12.9262 -2.61225 
Ar 27.5242 9.61267 0.253372 
Ar 31.0093 12.1534 -0.729386 
Ar 1.13329 13.1939 -0.731996 
Ar 0.870288 17.8841 0.687557 
Ar 3.74063 16.2943 -0.536037 
Ar 4.61929 18.7719 2.28769 
Ar 6.54827 15.2208 1.77291 
Ar 7.97977 19.1135 1.0404 
Ar 11.225 15.0229 0.540801 
Ar 11.7557 18.5176 0.0851556 
Ar 14.4213 14.1374 1.93415 
Ar 15.7981 18.7402 -0.578002 
Ar 18.0657 14.5145 0.245385 
Ar 19.4492 17.9434 -0.765384 
Ar 21.9423 14.4482 0.209369 
Ar 22.9608 17.7836 0.756036 
Ar 29.7155 15.9698 -0.613015 
Ar 26.2033 19.5769 -1.02617 
Ar 28.2492 12.758 1.54834 
Ar 29.9461 19.2092 -0.471447 
Ar -1.56171 22.3367 -2.27513 
Ar 1.10033 25.304 -0.0733193 
Ar 2.50416 21.8859 -0.0599623 
Ar 5.1492 23.5902 2.72904 
Ar 6.79923 22.4549 -0.0309198 
Ar 9.45272 24.7 1.92072 
Ar 10.6137 21.9562 0.278481 
Ar 12.7676 24.979 0.0114305 
Ar 14.8363 22.2758 -1.86643 
Ar 18.235 24.8858 -0.524544 
Ar 18.2666 21.4423 -1.65782 
Ar 19.653 28.1265 -1.17818 
Ar 21.1674 22.0232 0.409091 
Ar 22.2165 25.6783 0.562511 
Ar 24.8583 22.8457 -1.28563 
Ar 27.6668 26.1872 0.991421 
Ar 28.2727 22.3136 0.536661 
Ar 30.4749 25.4941 -1.41922 
Ar 1.54802 1.64208 6.01985 
Ar 4.73678 4.7933 4.90989 
Ar 5.5985 0.165194 4.6795 
Ar 7.40817 5.97308 2.28905 
Ar 10.2237 3.71357 2.30461 
Ar 12.586 6.3329 4.14948 
Ar 13.9984 3.16572 2.59667 
Ar 15.8049 6.05698 1.42815 
Ar 17.2004 1.13528 3.32056 
Ar 18.5547 6.28845 3.81374 
Ar 20.5936 2.35398 4.10655 
Ar 22.0901 5.32306 2.87648 
Ar 24.3755 2.94868 4.79345 
Ar 26.9227 6.05703 6.35503 
Ar 28.5106 2.92945 3.59935 
Ar 28.6197 6.0981 2.07907 
Ar 31.979 4.17681 3.7406 
Ar 30.4099 6.5266 6.01859 
Ar 2.75378 6.83932 6.88107 
Ar 3.21481 10.7853 5.49954 
Ar 4.29828 8.30819 2.18201 
Ar 8.8056 12.4469 1.51129 
Ar 9.76877 9.01002 1.27815 
Ar 11.0648 12.6877 4.70204 
Ar 13.8236 10.2625 2.86255 
Ar 14.7757 12.6977 5.45607 
Ar 15.5276 9.05633 6.22954 
Ar 18.2459 14.3338 4.26497 
Ar 20.2016 9.66002 3.47755 
Ar 23.4526 8.94936 1.0606 
Ar 23.6536 8.66222 4.60072 
Ar 25.1674 12.1335 5.07393 
Ar 27.3349 9.10356 4.16105 
Ar 30.0156 12.567 5.14939 
Ar 30.7155 8.98731 1.80434 
Ar 31.9958 14.1219 2.41691 
Ar 0.347935 16.9701 5.18195 
Ar 1.77046 19.9032 3.97503 
Ar 3.0863 14.8275 2.76529 
Ar 7.18272 18.1584 4.77115 
Ar 9.74236 15.8006 3.51946 
Ar 10.8048 19.6026 3.58705 
Ar 13.4303 16.8089 4.64594 
Ar 14.974 20.7439 2.2327 
Ar 16.7412 17.2237 2.90578 
Ar 18.578 21.1377 3.39616 
Ar 20.2057 17.6545 3.33786 
Ar 21.6459 21.003 4.9149 
Ar 21.6596 13.2937 3.63099 
Ar 24.9452 21.4961 2.45489 
Ar 25.6176 15.8915 1.57884 
Ar 28.0004 19.6075 4.15105 
Ar 30.5368 17.4233 2.93048 
Ar 32.3469 20.9241 1.60945 
Ar 1.38174 23.9041 3.30886 
Ar 3.83567 27.0888 2.47323 
Ar 4.53929 21.4094 6.20487 
Ar 5.67753 26.0237 6.10482 
Ar 8.67545 22.7474 5.00755 
Ar 12.0069 28.3154 1.32027 
Ar 10.4752 26.2762 5.42914 
Ar 15.3639 26.767 0.839074 
Ar 16.875 24.5107 3.44231 
Ar 19.066 27.6844 2.40065 
Ar 20.8921 24.6686 4.50113 
Ar 22.9734 29.1286 3.0425 
Ar 24.8794 25.7594 3.29412 
Ar 25.7889 28.9997 5.99592 
Ar 27.7131 24.0101 4.41646 
Ar 28.6609 27.6093 4.30687 
Ar 30.7489 24.8763 2.56297 
Ar 33.1502 27.4879 2.72082 
Ar 4.94365 5.81505 10.3312 
Ar 5.98858 7.88676 5.74915 
Ar 7.70022 3.27498 5.20341 
Ar 9.39323 6.80409 5.62091 
Ar 11.0212 3.56178 7.2331 
Ar 13.1747 6.57318 7.41266 
Ar 15.0074 3.21347 5.85623 
Ar 16.312 8.48639 9.68179 
Ar 19.1157 2.8393 7.34128 
Ar 18.6674 7.69075 7.11677 
Ar 22.3244 1.32203 7.74241 
Ar 21.8348 5.41611 6.45271 
Ar 25.1336 3.54457 8.37115 
Ar 28.4721 6.77818 9.56643 
Ar 29.3779 3.02518 7.18619 
Ar 31.9784 8.19819 8.67385 
Ar 32.7682 4.49489 7.54586 
Ar 35.7739 9.7124 9.17359 
Ar 5.98105 10.9352 7.64921 
Ar 7.27192 13.8832 5.48476 
Ar 8.5929 10.0165 4.49032 
Ar 8.77154 13.4235 8.95008 
Ar 12.5455 10.223 7.37503 
Ar 13.1016 14.6761 8.28725 
Ar 15.9261 12.0227 9.50998 
Ar 16.5794 15.5489 7.03809 
Ar 18.3384 11.4472 6.57282 
Ar 20.0535 14.7795 7.84251 
Ar 22.0547 11.7945 7.05498 
Ar 24.4535 14.8714 7.01737 
Ar 25.8229 9.70727 7.90153 
Ar 28.0094 15.792 5.48194 
Ar 29.2872 9.8273 7.52357 
Ar 32.1634 15.0303 7.93491 
Ar 33.1646 11.5813 7.25959 
Ar 36.3525 14.03 7.28185 
Ar 3.70194 17.5327 6.12018 
Ar 4.7173 19.3483 9.33407 
Ar 6.42165 16.1292 8.11698 
Ar 8.29301 20.3625 7.98908 
Ar 10.2334 17.1581 7.5114 
Ar 13.2878 24.1788 3.88047 
Ar 13.8449 18.834 7.52486 
Ar 15.6707 21.4243 5.596 
Ar 18.432 18.2956 6.45844 
Ar 20.9669 24.1427 8.0454 
Ar 23.1593 18.2399 8.22511 
Ar 24.4112 22.8763 6.05605 
Ar 24.7223 18.1195 4.39534 
Ar 28.1935 21.7263 6.89615 
Ar 30.7213 18.9297 7.04542 
Ar 31.0833 21.6227 4.64542 
Ar 34.1518 20.0614 7.6605 
Ar 35.1598 23.9058 7.62873 
Ar 4.60902 25.3033 9.77916 
Ar 5.70668 28.7471 9.58005 
Ar 8.84537 25.9541 9.40574 
Ar 9.29511 29.3475 3.30186 
Ar 11.0742 23.4348 7.98489 
Ar 13.0547 29.2024 4.59625 
Ar 13.7382 26.203 7.48137 
Ar 16.5371 29.1974 7.3176 
Ar 17.6005 25.5163 7.01182 
Ar 20.2007 28.0349 5.58237 
Ar 23.1808 26.8353 7.31068 
Ar 23.9447 28.7058 10.3845 
Ar 26.8248 25.5963 7.81093 
Ar 27.9175 28.6649 9.27413 
Ar 31.8398 25.8798 5.87165 
Ar 31.5555 30.2254 4.41704 
Ar 35.6878 27.6945 6.26914 
Ar 35.6185 32.3422 9.26634 
