216
#
Ar -1.64798 1.00837 -1.86337 
Ar 1.1164 1.43675 1.99128 
Ar 1.57226 -0.672775 -1.41388 
Ar 4.86067 1.77617 1.36418 
Ar 7.4103 -2.0204 1.89964 
Ar 9.84182 1.41814 -0.444928 
Ar 8.46427 -0.0323927 -3.96816 
Ar 12.8594 3.64774 -0.584149 
Ar 12.633 -0.0285545 -2.7651 
Ar 18.5305 3.4591 1.04366 
Ar 15.7436 1.43358 -0.664288 
Ar 22.3712 5.07149 -1.50557 
Ar 21.1724 1.24365 0.308039 
Ar 24.9356 3.00375 0.788787 
Ar 27.1381 0.0640281 1.70128 
Ar 28.8286 2.8062 -0.0983624 
Ar 30.8214 -0.784236 1.05393 
Ar 32.1596 4.48496 -0.0448461 
Ar 1.08738 7.68213 4.47744 
Ar 1.60056 10.9875 1.88792 
Ar 1.9373 5.5543 1.53083 
Ar 5.15353 12.018 0.0601646 
Ar 6.8739 3.28046 -1.73569 
Ar 8.33365 8.70184 -2.59404 
Ar 9.80006 5.71133 -1.04578 
Ar 11.933 11.0929 -0.290661 
Ar 13.2099 7.79003 -0.0417204 
Ar 17.2646 10.8408 2.60515 
Ar 19.2472 7.10347 0.240836 
Ar 19.9997 10.9422 -0.720141 
Ar 22.3274 8.73488 -2.38608 
Ar 25.0684 12.008 0.672272 
Ar 25.5174 6.33479 2.87223 
Ar 28.1635 13.5536 -2.69796 
Ar 27.8879 8.95991 0.174995 
Ar 30.3632 11.5944 -0.465331 
Ar 1.38585 13.5491 -0.622985 
Ar 0.302516 17.4615 0.935941 
Ar 3.52209 16.8967 -0.876738 
Ar 3.5821 18.5705 2.28223 
Ar 6.4928 15.8947 1.7317 
Ar 8.23676 18.9659 1.38662 
Ar 11.8536 15.1687 0.505231 
Ar 11.5754 18.4485 -0.759916 
Ar 15.0982 13.7696 2.34595 
Ar 16.3345 18.7021 -0.684754 
Ar 18.581 14.94 0.712284 
Ar 19.695 17.6732 -1.35264 
Ar 22.2615 14.6449 -0.2379 
Ar 22.849 19.5179 0.715208 
Ar 29.3879 15.4867 0.18245 
Ar 26.2769 19.0195 -0.966243 
Ar 28.1189 12.7314 2.18695 
Ar 30.078 18.8308 -0.175599 
Ar -1.17547 22.6546 -2.56872 
Ar 0.119472 25.3336 -0.245013 
Ar 3.00611 22.2806 0.0111474 
Ar 4.77656 23.5013 2.69735 
Ar 6.79843 22.5371 -0.508378 
Ar 9.90505 25.1084 2.70414 
Ar 10.4222 21.7244 0.885436 
Ar 12.2109 24.6973 -0.50159 
Ar 14.578 22.1956 -1.4861 
Ar 18.3742 23.9767 0.132352 
Ar 18.5645 21.3218 -2.90566 
Ar 18.4517 28.2863 -1.27445 
Ar 21.6159 22.7346 1.21104 
Ar 21.6112 26.2408 0.201149 
Ar 24.6209 23.2027 -1.11039 
Ar 26.9654 25.9866 0.543333 
Ar 28.0617 22.4629 0.467505 
Ar 30.0104 26.1278 -1.64945 
Ar 2.08273 2.24408 6.27292 
Ar 3.94213 4.37471 4.33201 
Ar 5.36211 0.347473 5.22644 
Ar 7.30244 5.81166 2.47538 
Ar 10.2323 3.9567 2.37559 
Ar 13.1384 6.34711 3.36702 
Ar 13.4074 2.11277 3.03042 
Ar 15.7929 5.38733 1.35987 
Ar 17.1581 1.16597 3.68446 
Ar 18.5177 6.58911 3.6363 
Ar 20.1723 1.83584 4.7488 
Ar 21.7314 4.88625 2.04859 
Ar 24.2973 3.29841 4.49153 
Ar 26.3275 6.09929 6.14407 
Ar 27.8953 3.15796 3.93055 
Ar 29.0997 6.17476 2.08626 
Ar 31.6162 4.26182 3.64368 
Ar 30.4698 7.12049 5.39004 
Ar 3.17168 6.69018 7.29283 
Ar 3.0414 10.5596 5.35805 
Ar 4.01207 8.02091 2.64471 
Ar 8.72973 12.8874 1.74458 
Ar 9.83871 7.94742 1.88081 
Ar 11.2744 13.1139 4.44401 
Ar 12.8098 10.0493 3.05373 
Ar 14.8895 12.4532 5.74658 
Ar 15.4312 8.66179 5.15776 
Ar 17.872 14.4305 4.43134 
Ar 20.8767 9.79779 2.79002 
Ar 23.1013 7.65447 0.787736 
Ar 23.5733 9.16999 5.11501 
Ar 25.6832 12.2499 4.69972 
Ar 27.9267 9.11192 3.87055 
Ar 30.648 12.6669 4.7448 
Ar 31.655 9.28396 2.26429 
Ar 31.9986 14.0321 1.96759 
Ar 0.115349 16.2956 5.19212 
Ar 0.999316 20.1975 4.20013 
Ar 2.96172 14.7323 2.64775 
Ar 7.27734 18.2774 4.90915 
Ar 10.1702 16.3663 3.57639 
Ar 10.6745 20.1876 4.09604 
Ar 13.5821 16.3958 4.42278 
Ar 14.9622 21.3637 2.02873 
Ar 16.5928 17.7524 2.76202 
Ar 18.585 21.2212 3.29079 
Ar 20.9053 17.2133 3.07054 
Ar 21.9996 20.6777 4.74505 
Ar 21.7312 13.2835 3.81265 
Ar 24.8955 21.9533 2.41281 
Ar 25.6566 15.5785 1.03079 
Ar 27.7182 19.7062 3.75814 
Ar 30.3983 17.3638 3.19049 
Ar 32.2873 22.0427 1.00755 
Ar 1.50373 23.9746 4.10448 
Ar 3.73599 27.4864 2.53967 
Ar 4.69451 21.2498 5.90873 
Ar 6.2683 25.7376 6.1515 
Ar 7.71433 22.7766 4.78273 
Ar 11.9364 27.9946 0.594565 
Ar 10.2713 26.6304 6.02738 
Ar 15.5764 27.4411 0.736006 
Ar 16.7099 24.592 3.50161 
Ar 19.0451 27.7111 2.27954 
Ar 20.8918 24.2462 4.59243 
Ar 22.5159 28.7786 3.1585 
Ar 24.3031 25.4235 3.43514 
Ar 25.7975 29.3222 5.40582 
Ar 27.5438 23.4408 3.819 
Ar 28.9423 27.3405 4.1146 
Ar 30.5085 24.851 2.44193 
Ar 33.0391 27.0829 3.36713 
Ar 5.25315 6.49467 10.2782 
Ar 6.04393 7.55865 5.495 
Ar 7.29965 3.33499 5.00805 
Ar 9.80159 6.13769 5.69223 
Ar 10.8896 2.88673 7.08095 
Ar 13.0552 6.29883 7.70771 
Ar 14.5906 2.91937 7.38135 
Ar 16.5045 8.6364 9.67552 
Ar 18.3701 3.09436 8.16605 
Ar 19.1788 7.87171 7.35021 
Ar 22.9584 0.920938 7.45821 
Ar 21.7875 5.6624 5.28993 
Ar 25.6542 3.41024 8.49304 
Ar 29.5012 6.20725 9.43398 
Ar 28.9288 2.81581 7.20629 
Ar 32.6676 7.94635 9.719 
Ar 32.7681 5.10567 7.4975 
Ar 36.0104 9.99692 9.12245 
Ar 5.92187 11.0589 7.32789 
Ar 7.40509 14.1617 5.28194 
Ar 8.53181 10.2916 4.76674 
Ar 9.68092 12.858 8.47045 
Ar 11.8142 10.0726 6.95032 
Ar 12.5302 14.4808 7.53115 
Ar 16.8225 12.4078 9.34214 
Ar 16.1234 15.9527 7.67367 
Ar 19.3002 11.3212 6.14523 
Ar 19.4829 14.4249 8.15586 
Ar 22.8039 11.8803 7.46029 
Ar 24.7072 15.2792 7.46394 
Ar 25.951 9.41698 8.03717 
Ar 27.7944 15.1869 4.86684 
Ar 29.684 10.0919 7.44699 
Ar 31.7907 15.7492 8.54432 
Ar 33.1672 12.6652 7.25554 
Ar 36.8739 13.8273 7.58499 
Ar 3.71864 17.5356 6.1272 
Ar 5.3215 19.6715 9.30564 
Ar 6.7448 16.3337 8.83184 
Ar 8.16976 20.4531 7.59059 
Ar 9.9669 16.7483 7.1787 
Ar 13.5411 25.1055 3.13792 
Ar 13.6915 19.2517 7.42163 
Ar 15.7521 22.0381 5.93326 
Ar 18.106 18.8082 5.59051 
Ar 21.395 23.3815 8.75506 
Ar 22.4803 18.6017 7.79432 
Ar 24.583 22.9554 5.90347 
Ar 24.4174 17.7083 4.07835 
Ar 27.9936 21.7622 8.11559 
Ar 30.2292 18.1967 6.63637 
Ar 31.0223 22.0953 4.95563 
Ar 34.8074 19.9409 8.00762 
Ar 34.9558 24.1689 7.70424 
Ar 4.73626 25.2956 9.97484 
Ar 6.25198 28.9918 9.82819 
Ar 9.15533 26.6121 9.67534 
Ar 9.96093 29.5456 3.34417 
Ar 10.4976 22.872 7.37965 
Ar 13.3045 28.6881 4.85077 
Ar 14.0036 25.7266 7.22564 
Ar 16.0835 28.9425 6.80146 
Ar 17.6791 24.7253 7.15409 
Ar 19.636 27.5622 6.53226 
Ar 23.3821 26.494 6.9561 
Ar 24.4622 28.5565 10.2272 
Ar 26.8873 25.5019 7.7769 
Ar 27.7764 29.1663 8.70132 
Ar 31.8354 25.8292 6.4183 
Ar 31.1125 30.1015 5.27905 
Ar 35.6185 27.6325 6.42356 
Ar 35.6481 32.172 9.68787 
