216
#
Ar 0.338814 0.099506 -1.45773 
Ar 1.56917 2.54435 1.3024 
Ar 3.24002 -1.5168 -0.254571 
Ar 5.0905 2.04548 0.705465 
Ar 7.47896 -1.23592 0.878104 
Ar 9.26913 1.60404 -1.13848 
Ar 10.4514 -2.11875 -2.06119 
Ar 13.4475 4.92652 -1.34947 
Ar 13.6324 1.49818 -1.26741 
Ar 17.4176 4.06339 -0.235757 
Ar 16.9789 0.397582 -0.230361 
Ar 21.4125 5.4832 -0.249992 
Ar 20.8713 1.06744 0.203687 
Ar 24.3706 3.15193 0.227094 
Ar 26.4988 0.213644 1.18406 
Ar 27.8053 4.0383 -0.0916757 
Ar 30.3134 0.527422 1.01431 
Ar 31.52 4.7382 -0.295667 
Ar 0.712868 6.39655 1.94752 
Ar 1.40133 10.9998 0.937046 
Ar 4.0821 5.35444 2.08096 
Ar 5.03546 11.2722 0.943388 
Ar 6.8317 4.42823 -1.91 
Ar 7.25023 8.90799 -1.55546 
Ar 9.61389 6.38527 -0.346311 
Ar 10.6287 12.0899 0.387556 
Ar 12.8069 8.94294 -0.197883 
Ar 15.9547 10.7761 1.13216 
Ar 18.972 7.73566 -0.159488 
Ar 19.4626 11.3678 -0.533276 
Ar 22.4976 8.93157 -0.593991 
Ar 22.6895 12.123 -1.61297 
Ar 25.1851 6.85362 0.538918 
Ar 27.1644 12.5504 -1.62715 
Ar 27.6712 9.6521 0.761999 
Ar 31.0254 11.4528 -1.07441 
Ar 0.351844 14.2131 -0.542993 
Ar 0.32016 17.9588 0.671161 
Ar 3.10182 15.785 -2.01018 
Ar 4.76923 18.1926 0.625134 
Ar 6.38693 15.014 0.833455 
Ar 8.51613 18.4206 0.261746 
Ar 10.2254 15.1538 2.06164 
Ar 12.0502 18.4932 0.0150652 
Ar 14.8352 14.2361 1.23943 
Ar 15.6845 18.8387 -1.23796 
Ar 19.1279 15.4234 -0.221104 
Ar 20.0482 18.5287 -1.3842 
Ar 22.6995 15.6192 -0.526644 
Ar 22.9784 18.7171 1.60021 
Ar 28.2539 16.4482 -0.896288 
Ar 25.8628 20.0622 0.0806306 
Ar 29.1668 13.1398 1.19269 
Ar 29.5287 19.3594 0.92385 
Ar -1.53106 21.5222 -1.47892 
Ar 0.716013 24.6576 -0.474774 
Ar 2.48884 21.3871 -0.520834 
Ar 4.45921 23.783 1.81015 
Ar 7.5431 22.2293 0.155648 
Ar 9.56748 24.9931 1.30012 
Ar 11.2648 21.4966 1.25722 
Ar 13.5757 25.1871 1.48318 
Ar 14.4118 22.1119 -1.51088 
Ar 16.605 26.1482 0.00368139 
Ar 17.9695 22.3414 -0.183453 
Ar 20.5183 27.443 -1.47783 
Ar 21.3862 21.9104 1.3528 
Ar 22.2553 26.1957 1.76361 
Ar 23.382 22.623 -1.62162 
Ar 25.6485 25.7688 0.547524 
Ar 28.0047 22.8919 1.43112 
Ar 29.7244 25.0403 -0.892216 
Ar 2.22366 0.61352 5.31263 
Ar 3.87546 3.76203 5.4378 
Ar 5.70179 0.717814 3.88564 
Ar 7.88735 5.18064 2.56305 
Ar 9.78795 1.92581 2.91702 
Ar 11.4061 5.98265 2.87025 
Ar 13.8795 3.10128 1.99104 
Ar 15.2964 6.72785 1.55247 
Ar 16.8363 1.95438 3.81249 
Ar 18.7242 5.30003 2.84289 
Ar 20.5128 1.84584 3.61023 
Ar 23.305 5.55211 3.27641 
Ar 24.5584 2.70417 4.54333 
Ar 27.0192 5.56526 4.80048 
Ar 28.3773 2.20913 4.25581 
Ar 29.6835 6.39288 2.11104 
Ar 32.1052 3.33288 3.6777 
Ar 31.2721 6.93811 6.20652 
Ar 1.92824 7.66344 5.57662 
Ar 3.5867 11.1207 4.32025 
Ar 5.78787 8.11496 3.17756 
Ar 7.5646 12.497 3.11836 
Ar 9.88234 9.47296 3.15301 
Ar 10.5829 12.8056 4.73132 
Ar 13.128 10.1516 3.47149 
Ar 15.3556 12.5231 5.11943 
Ar 16.0255 8.84294 5.04757 
Ar 18.8641 12.5334 3.26858 
Ar 20.5885 9.09002 2.81916 
Ar 22.4732 12.6413 2.38696 
Ar 24.217 8.65804 4.20693 
Ar 25.7366 12.8294 3.67514 
Ar 27.8171 8.95701 4.2318 
Ar 29.7141 12.4162 5.12465 
Ar 31.081 9.95965 2.62551 
Ar 32.4606 13.8715 2.92114 
Ar 0.781418 17.3133 4.06045 
Ar 3.24548 20.5496 3.48998 
Ar 2.9477 14.4308 1.82293 
Ar 7.41083 20.1661 3.02042 
Ar 8.18652 16.7401 5.04194 
Ar 11.1803 19.2706 3.92078 
Ar 12.6154 15.3107 5.2584 
Ar 14.8858 20.8371 2.0506 
Ar 16.3549 16.855 3.2073 
Ar 18.3107 20.7288 3.37865 
Ar 19.9451 17.0184 2.66659 
Ar 22.3761 19.797 5.23143 
Ar 23.2302 15.9826 4.26717 
Ar 24.331 23.1673 2.61503 
Ar 26.4775 16.4911 2.62188 
Ar 28.3421 19.7047 4.42446 
Ar 29.9903 16.5464 2.95172 
Ar 32.4803 21.7476 2.04951 
Ar 1.91914 24.0802 3.97696 
Ar 3.86052 27.2141 3.6554 
Ar 5.70011 22.5815 5.11138 
Ar 7.08273 25.6544 3.63452 
Ar 9.16585 22.9436 4.66585 
Ar 11.3225 28.1922 1.31881 
Ar 11.9387 25.6075 4.58405 
Ar 15.2745 28.2957 2.79643 
Ar 16.2084 24.1931 4.00816 
Ar 19.1681 27.6418 1.97135 
Ar 19.7089 24.3201 3.92138 
Ar 23.1827 28.6247 4.35156 
Ar 25.8552 26.5323 3.99855 
Ar 26.0692 29.0631 6.22326 
Ar 28.3153 23.8645 4.73581 
Ar 29.1502 27.5658 3.89459 
Ar 31.7065 25.003 2.48548 
Ar 33.272 27.8195 2.81773 
Ar 3.48244 5.01518 8.9385 
Ar 5.30762 7.34799 6.69275 
Ar 7.24777 3.02157 6.07385 
Ar 9.09277 6.88941 6.18774 
Ar 10.475 4.09604 7.51813 
Ar 13.0034 6.87842 6.67016 
Ar 15.9158 4.35542 6.83482 
Ar 15.8286 7.49205 9.15271 
Ar 19.1879 2.48286 6.9727 
Ar 19.5219 7.69053 7.17011 
Ar 22.654 2.21255 8.2789 
Ar 22.9741 5.58305 6.9179 
Ar 26.2793 3.51435 7.73652 
Ar 26.7076 6.96853 8.47116 
Ar 29.9126 3.66175 7.17571 
Ar 31.5024 8.01162 10.1445 
Ar 33.296 3.80435 7.30311 
Ar 35.9078 7.95682 10.3727 
Ar 4.20097 10.7702 8.08943 
Ar 5.65484 13.9725 5.67014 
Ar 7.45974 10.3589 6.00669 
Ar 9.4554 14.173 8.41544 
Ar 11.2323 10.2472 6.99673 
Ar 13.3659 15.5459 8.82584 
Ar 14.3779 12.0788 8.73806 
Ar 17.1328 15.1288 7.3053 
Ar 17.5178 11.2583 7.52913 
Ar 21.1284 15.3045 7.14554 
Ar 21.2494 11.6674 5.89883 
Ar 24.6979 14.5381 7.76262 
Ar 25.0392 10.2035 7.73337 
Ar 27.8479 15.1196 6.09995 
Ar 29.0212 9.68353 7.5683 
Ar 31.5653 15.6879 6.45531 
Ar 33.0095 10.8374 5.61491 
Ar 35.0757 14.4832 5.69024 
Ar 4.70377 17.3214 4.80394 
Ar 5.41295 20.7798 8.46608 
Ar 6.80808 16.7302 8.39042 
Ar 8.87547 21.207 7.86759 
Ar 10.9836 17.8496 7.3279 
Ar 12.5684 21.9661 5.92907 
Ar 14.8692 18.2614 6.1298 
Ar 16.816 21.677 7.17286 
Ar 18.906 18.6584 6.28212 
Ar 20.2843 22.0043 7.33892 
Ar 23.4329 18.9145 8.7978 
Ar 25.1758 22.3623 5.92304 
Ar 25.5368 18.1781 6.36413 
Ar 28.1402 21.5465 8.40607 
Ar 29.9657 18.6134 7.76357 
Ar 31.5105 21.4548 5.78843 
Ar 34.1926 18.523 7.95083 
Ar 35.2046 22.0813 6.97458 
Ar 4.00423 24.3459 9.06345 
Ar 6.96564 28.3147 7.57058 
Ar 7.75947 24.4455 8.526 
Ar 9.12078 28.3503 4.66 
Ar 11.3543 23.7758 8.8733 
Ar 13.0753 30.4057 5.77583 
Ar 14.8744 26.1778 7.96355 
Ar 16.1395 29.5673 7.27744 
Ar 18.491 24.9467 7.53541 
Ar 20.0332 27.9651 5.90364 
Ar 22.8295 25.0708 6.51389 
Ar 24.3016 27.8574 8.97175 
Ar 26.6152 25.425 7.77224 
Ar 28.9612 28.6456 8.49338 
Ar 30.8101 25.7715 6.45535 
Ar 31.6958 29.529 5.93567 
Ar 34.3754 26.8512 6.67812 
Ar 37.3441 30.5828 7.96371 
