216
#
Ar -1.54817 1.03622 -1.86199 
Ar 1.1821 1.34162 1.90045 
Ar 1.69241 -0.615076 -1.27571 
Ar 4.95072 2.02823 1.48817 
Ar 7.30564 -2.04674 1.82735 
Ar 9.89141 1.28411 -0.721864 
Ar 8.57681 0.141561 -3.96509 
Ar 12.893 3.62371 -0.706303 
Ar 12.7264 0.143245 -2.71251 
Ar 18.7313 3.80272 0.8866 
Ar 15.8587 1.3529 -0.4822 
Ar 22.3872 5.21133 -1.38229 
Ar 21.1194 1.39421 0.396735 
Ar 24.7916 3.17626 0.806206 
Ar 26.8828 0.192784 1.5802 
Ar 28.8045 2.59706 -0.131165 
Ar 30.8486 -0.650291 1.13424 
Ar 32.1571 4.52536 0.010811 
Ar 0.860197 7.60566 4.34908 
Ar 1.67207 10.9547 1.93053 
Ar 1.97913 5.31226 1.48349 
Ar 4.91697 11.9842 0.0637073 
Ar 6.88851 3.06689 -1.70152 
Ar 8.30654 8.45757 -2.46095 
Ar 9.93591 5.83754 -1.02885 
Ar 11.819 11.0875 -0.300801 
Ar 13.285 7.80405 0.0908197 
Ar 17.2086 10.8474 2.76314 
Ar 19.399 7.1659 0.145303 
Ar 20.0199 10.7167 -0.721863 
Ar 22.2472 8.51011 -2.41225 
Ar 24.9967 11.8539 0.397836 
Ar 25.3945 6.25332 2.81537 
Ar 28.1449 13.5111 -2.6327 
Ar 27.7227 9.17597 0.160614 
Ar 30.5873 11.5108 -0.400883 
Ar 1.33467 13.6803 -0.379635 
Ar 0.326633 17.5501 0.934055 
Ar 3.61927 16.6091 -0.6999 
Ar 3.81538 18.5492 2.27755 
Ar 6.55252 15.8136 1.64981 
Ar 8.03495 18.8749 1.44266 
Ar 11.7824 15.1386 0.346853 
Ar 11.6887 18.5711 -0.713759 
Ar 14.973 13.8747 2.34205 
Ar 16.2611 18.7236 -0.57624 
Ar 18.3668 14.8812 0.560247 
Ar 19.683 17.7408 -1.34378 
Ar 22.1959 14.5867 -0.149561 
Ar 22.9378 19.2466 0.759532 
Ar 29.1639 15.4713 0.0785391 
Ar 26.1813 19.144 -0.967873 
Ar 28.141 12.7351 2.30018 
Ar 30.1127 19.0464 -0.284913 
Ar -1.20962 22.3942 -2.46434 
Ar 0.0965862 25.2303 -0.189162 
Ar 2.9518 22.29 0.0728953 
Ar 4.74642 23.379 2.82911 
Ar 6.86405 22.3199 -0.405156 
Ar 9.97591 25.018 2.59227 
Ar 10.3888 21.7775 0.731635 
Ar 12.277 24.6779 -0.400593 
Ar 14.5276 22.2891 -1.5332 
Ar 18.4399 24.1696 0.00946973 
Ar 18.4502 21.2187 -2.71519 
Ar 18.4999 28.2996 -1.38264 
Ar 21.5653 22.5016 1.13982 
Ar 21.5392 26.1973 0.397059 
Ar 24.6242 23.1063 -1.17015 
Ar 27.1638 25.8318 0.729424 
Ar 28.0218 22.4592 0.414733 
Ar 30.1847 26.0834 -1.64849 
Ar 1.93944 2.15667 6.3217 
Ar 4.10781 4.39078 4.21753 
Ar 5.54507 0.262456 5.22428 
Ar 7.32967 5.89067 2.53247 
Ar 10.2789 3.67347 2.62582 
Ar 13.0436 6.15836 3.40649 
Ar 13.4392 2.25898 3.06203 
Ar 15.7941 5.56609 1.38659 
Ar 17.0593 1.27967 3.51671 
Ar 18.55 6.47317 3.61661 
Ar 20.2912 1.6966 4.77022 
Ar 21.5641 4.94173 2.22248 
Ar 24.519 3.25472 4.56153 
Ar 26.413 6.12939 6.09992 
Ar 27.9444 3.16441 3.92846 
Ar 28.8724 6.23933 2.17775 
Ar 31.691 4.40617 3.6198 
Ar 30.4595 7.04199 5.70372 
Ar 3.00573 6.70375 7.12002 
Ar 3.00403 10.6646 5.38351 
Ar 3.90944 7.87477 2.42305 
Ar 8.74493 12.925 1.62017 
Ar 9.84994 8.17708 1.72308 
Ar 11.2016 12.9135 4.52836 
Ar 13.1047 9.84924 2.8138 
Ar 14.7327 12.5467 5.6766 
Ar 15.4271 8.8306 5.21835 
Ar 17.9735 14.3167 4.39353 
Ar 20.9585 9.73964 2.835 
Ar 23.0963 7.77796 0.854351 
Ar 23.6048 9.1132 5.21536 
Ar 25.8733 12.173 4.54134 
Ar 27.7616 9.09394 4.03751 
Ar 30.5531 12.6299 4.84552 
Ar 31.5753 9.17126 2.17558 
Ar 31.9204 13.9652 1.83686 
Ar 0.358157 16.3599 5.00326 
Ar 1.23148 20.3419 4.19683 
Ar 2.8182 14.9247 2.70806 
Ar 7.30284 18.2607 4.93248 
Ar 9.9674 16.3618 3.71434 
Ar 10.7114 20.0814 3.92284 
Ar 13.5919 16.564 4.53302 
Ar 15.0081 21.1945 2.05498 
Ar 16.687 17.5231 2.60299 
Ar 18.6171 21.3981 3.23454 
Ar 20.8766 17.4043 3.11269 
Ar 22.061 20.4606 4.97592 
Ar 21.6547 13.2648 3.75595 
Ar 24.7136 21.8984 2.22071 
Ar 25.9052 15.6409 1.03445 
Ar 27.8721 19.5547 3.83459 
Ar 30.5432 17.3514 3.12457 
Ar 32.3014 21.9602 1.05882 
Ar 1.53912 23.7824 3.78555 
Ar 3.84848 27.3029 2.30707 
Ar 4.65252 21.3553 5.8273 
Ar 6.19874 25.761 6.07125 
Ar 7.6319 22.9144 4.79682 
Ar 11.9743 27.9862 0.522719 
Ar 10.3403 26.7044 5.91553 
Ar 15.6337 27.4427 0.767671 
Ar 16.7984 24.5612 3.43236 
Ar 18.948 27.45 2.10543 
Ar 21.0733 24.3975 4.60354 
Ar 22.576 28.7645 3.09698 
Ar 24.1395 25.5761 3.48428 
Ar 25.7646 29.2987 5.50804 
Ar 27.5304 23.6036 3.75433 
Ar 28.8945 27.3747 4.06632 
Ar 30.6955 24.8446 2.49351 
Ar 33.3144 27.2153 3.35752 
Ar 5.23793 6.33825 10.3564 
Ar 6.12947 7.63017 5.46295 
Ar 7.61297 3.24521 4.95641 
Ar 9.73978 6.11058 5.70404 
Ar 10.8944 3.07281 7.20338 
Ar 13.0477 6.28086 7.80648 
Ar 14.6467 2.96229 7.12108 
Ar 16.296 8.57646 9.77445 
Ar 18.527 3.07179 7.93694 
Ar 19.199 8.02599 7.24153 
Ar 22.8447 1.02126 7.35939 
Ar 21.7925 5.85266 5.63449 
Ar 25.6938 3.46953 8.35599 
Ar 29.3678 6.36557 9.39095 
Ar 28.7801 2.78387 7.33385 
Ar 32.5287 8.36236 9.54695 
Ar 32.8465 5.00103 7.62402 
Ar 35.9433 9.97808 9.15657 
Ar 6.13789 11.0216 7.45771 
Ar 7.37431 14.0688 5.374 
Ar 8.55347 10.193 4.63795 
Ar 9.6194 12.9424 8.54295 
Ar 11.9827 10.1788 7.0677 
Ar 12.3876 14.578 7.8194 
Ar 16.7451 12.3563 9.48815 
Ar 16.0699 15.8215 7.52789 
Ar 19.172 11.3342 6.26422 
Ar 19.5818 14.4689 8.16261 
Ar 22.6697 11.9101 7.35965 
Ar 24.5785 15.0512 7.35248 
Ar 25.8545 9.39933 7.86421 
Ar 27.8594 15.1588 5.04147 
Ar 29.5344 10.038 7.2816 
Ar 31.8864 15.6199 8.2885 
Ar 33.0234 12.4483 7.20575 
Ar 36.8153 13.9473 7.54041 
Ar 3.77953 17.5184 6.05044 
Ar 5.08262 19.7534 9.3015 
Ar 6.71743 16.317 8.6857 
Ar 8.20923 20.3672 7.50409 
Ar 9.88515 16.7123 7.32925 
Ar 13.3425 24.893 3.19913 
Ar 13.6906 19.1651 7.62644 
Ar 15.7041 21.8752 5.90905 
Ar 18.1626 18.7941 5.77327 
Ar 21.3971 23.524 8.68678 
Ar 22.4524 18.6335 7.79537 
Ar 24.6562 23.0058 5.93704 
Ar 24.3835 17.8912 4.16937 
Ar 27.9809 21.9068 7.96437 
Ar 30.3863 18.3223 6.80943 
Ar 31.0738 21.888 4.95979 
Ar 34.8189 19.9966 7.97836 
Ar 34.9412 24.2719 7.72964 
Ar 4.61498 25.3843 10.1427 
Ar 6.22564 29.159 9.80912 
Ar 9.1351 26.433 9.64583 
Ar 9.77442 29.6168 3.20638 
Ar 10.5546 22.9396 7.61726 
Ar 13.2933 28.8928 5.00678 
Ar 14 25.9624 7.20958 
Ar 16.1022 28.9314 7.01432 
Ar 17.6232 24.9052 7.06248 
Ar 19.7172 27.8162 6.31007 
Ar 23.4002 26.6406 7.10919 
Ar 24.4815 28.5986 10.3486 
Ar 26.825 25.3211 7.79637 
Ar 27.9076 28.975 8.79729 
Ar 32.0427 25.945 6.32746 
Ar 31.2161 30.1593 5.06989 
Ar 35.359 27.5579 6.28246 
Ar 35.5566 32.3242 9.79686 
