216
#
Ar -1.75403 0.987206 -2.13715 
Ar 1.11724 1.40119 2.21656 
Ar 1.46772 -0.537327 -1.26679 
Ar 4.73481 1.31121 1.56665 
Ar 7.07111 -1.45774 2.35086 
Ar 9.27338 1.58503 0.228911 
Ar 8.07004 0.0890333 -4.05381 
Ar 12.5956 3.89001 -0.765216 
Ar 12.2123 -0.952802 -2.53321 
Ar 18.6704 1.97767 1.41111 
Ar 15.2576 1.1241 -0.253497 
Ar 21.9434 4.19363 -2.66846 
Ar 21.5809 0.655957 -0.240417 
Ar 25.0265 2.142 1.21824 
Ar 27.5188 -0.0896047 1.93745 
Ar 28.2881 3.00155 -0.0227125 
Ar 30.8094 -0.726495 0.917654 
Ar 32.3446 3.51942 -0.0419444 
Ar 1.08588 7.41749 4.89449 
Ar 1.85759 10.8399 1.82659 
Ar 2.16919 5.99442 1.59481 
Ar 5.88015 12.5548 0.0525882 
Ar 6.30084 3.65157 -2.03437 
Ar 8.64839 8.85977 -2.44705 
Ar 9.60034 5.60555 -1.60331 
Ar 12.2568 11.4095 -0.358459 
Ar 12.72 7.44318 -0.281124 
Ar 17.2428 10.596 1.91625 
Ar 19.4755 6.74588 0.234631 
Ar 20.0837 11.7867 -0.676176 
Ar 22.409 8.77687 -2.91789 
Ar 24.3193 11.75 1.37089 
Ar 26.2322 6.34218 2.64986 
Ar 28.1006 13.6474 -3.24976 
Ar 28.3021 8.79819 0.142864 
Ar 30.9084 12.1156 -0.579364 
Ar 1.8721 13.5544 -0.571815 
Ar 0.189384 17.6336 1.28221 
Ar 2.49294 16.7881 -1.54303 
Ar 3.48943 18.7113 2.41191 
Ar 6.27361 16.0905 1.91641 
Ar 8.10268 19.2806 0.945136 
Ar 12.1804 14.6741 0.776943 
Ar 11.1817 18.3543 -1.03813 
Ar 15.2384 13.3705 1.85603 
Ar 16.2362 19.0925 -1.02613 
Ar 18.7418 14.4131 1.18817 
Ar 19.8276 17.7086 -1.17867 
Ar 22.0687 14.9535 -0.501009 
Ar 22.4573 19.7399 0.25721 
Ar 28.9175 15.3711 0.30685 
Ar 26.435 18.5676 -0.765286 
Ar 27.9645 12.6295 2.39162 
Ar 30.0796 19.3485 -0.350357 
Ar -1.52046 22.7872 -2.19077 
Ar 0.532122 25.3327 0.0538173 
Ar 2.8631 21.821 -0.0744483 
Ar 5.34381 24.4488 2.50556 
Ar 7.69583 23.1107 -0.428025 
Ar 9.689 25.0767 2.7537 
Ar 11.0007 22.0442 1.19595 
Ar 12.0276 24.7862 -0.988533 
Ar 14.9046 22.2498 -1.76369 
Ar 17.7933 23.3896 0.17077 
Ar 18.6655 20.9384 -2.93414 
Ar 18.5041 28.3259 -0.754534 
Ar 21.6919 23.7301 1.62647 
Ar 21.652 26.4512 -0.696912 
Ar 24.9961 23.2781 -0.913842 
Ar 26.7651 26.1454 0.357455 
Ar 28.2078 21.9941 0.759592 
Ar 29.6102 26.0361 -1.61935 
Ar 1.45567 1.67051 6.03597 
Ar 3.64215 5.01847 4.50348 
Ar 5.10983 0.886939 4.97254 
Ar 6.27069 5.26034 2.19438 
Ar 10.2737 4.53591 2.47342 
Ar 13.0243 6.5771 3.63522 
Ar 13.1623 2.35027 2.57953 
Ar 15.6807 5.15221 0.935155 
Ar 15.9566 0.714617 3.7797 
Ar 18.4581 6.93515 3.80506 
Ar 20.4701 2.5469 4.96645 
Ar 21.8856 3.72934 1.24165 
Ar 24.0528 2.80941 4.60597 
Ar 26.466 6.27415 6.78411 
Ar 27.67 3.28266 3.66656 
Ar 30.1231 5.94225 1.69539 
Ar 31.6332 3.41211 3.96195 
Ar 30.4243 7.12501 5.13171 
Ar 2.89956 6.16213 7.90297 
Ar 2.85637 10.8077 5.27289 
Ar 5.048 9.15406 2.53283 
Ar 8.9411 12.7868 1.96149 
Ar 9.78599 8.22783 2.20953 
Ar 11.1946 13.9193 4.52963 
Ar 12.3797 10.3599 3.32842 
Ar 15.9765 11.6088 5.45902 
Ar 15.659 8.25312 5.54649 
Ar 17.7802 14.9823 4.81259 
Ar 20.7373 9.7427 2.57507 
Ar 23.3888 8.2367 0.938864 
Ar 23.7146 8.88806 4.57569 
Ar 25.4037 12.5403 5.10029 
Ar 27.7565 9.55252 3.94145 
Ar 30.2568 12.3842 5.04138 
Ar 31.2808 9.60745 2.31423 
Ar 32.7747 13.9858 2.45601 
Ar -0.286991 16.075 5.61997 
Ar -0.0366514 19.4287 4.42644 
Ar 3.35955 14.1484 2.68205 
Ar 6.89884 18.3159 4.71253 
Ar 9.88009 16.9851 2.91853 
Ar 10.8698 19.9446 4.9183 
Ar 13.9954 16.107 4.2232 
Ar 14.877 21.7931 2.18227 
Ar 16.1182 18.3088 2.44221 
Ar 18.3402 21.1809 2.81387 
Ar 20.9804 16.9347 3.15883 
Ar 21.8204 20.5873 3.97941 
Ar 21.9938 13.4748 3.93354 
Ar 24.7577 21.8132 2.34602 
Ar 25.41 15.6836 0.94722 
Ar 27.6658 19.7732 3.72603 
Ar 30.2735 17.4986 3.02625 
Ar 32.385 21.6435 1.16062 
Ar 1.20652 24.1639 4.42051 
Ar 3.06653 27.6617 2.96105 
Ar 4.57126 20.946 6.19083 
Ar 6.6163 26.046 6.39591 
Ar 7.9284 22.2949 4.30317 
Ar 11.9162 28.2877 1.29694 
Ar 10.3649 26.4814 6.25145 
Ar 15.481 27.0717 0.82771 
Ar 17.2263 25.1133 3.62768 
Ar 19.322 28.2027 3.09865 
Ar 20.4962 24.0788 5.30356 
Ar 22.9521 28.7562 3.65842 
Ar 24.7035 25.4712 3.10239 
Ar 25.9618 29.3094 5.19192 
Ar 27.5369 23.8348 5.05265 
Ar 28.6355 27.1482 4.78779 
Ar 30.2765 25.0718 1.73984 
Ar 32.7947 27.3854 3.49803 
Ar 5.62907 7.5616 10.3185 
Ar 6.4849 7.25167 6.11167 
Ar 7.23315 3.77546 5.65453 
Ar 9.78158 6.5126 5.52991 
Ar 10.6727 2.62567 6.59274 
Ar 13.0474 6.39894 7.09042 
Ar 14.3678 3.0346 6.94874 
Ar 16.5089 9.16979 9.41503 
Ar 18.211 3.21034 8.86807 
Ar 19.0794 6.88719 7.54561 
Ar 22.6576 0.832835 7.22371 
Ar 21.6689 6.06318 5.28975 
Ar 25.5887 2.9845 8.36229 
Ar 29.493 6.52078 8.77913 
Ar 29.3725 3.50028 6.64559 
Ar 33.0884 7.39577 10.0871 
Ar 32.6814 4.852 6.95991 
Ar 35.6963 10.0019 9.16075 
Ar 5.9785 11.1507 7.11036 
Ar 7.62306 14.5797 5.15331 
Ar 8.78842 10.6979 4.73267 
Ar 9.00659 12.5998 8.09945 
Ar 11.7896 9.62488 6.95727 
Ar 13.3773 14.2803 7.67151 
Ar 16.314 12.7864 9.08322 
Ar 16.3272 16.0881 7.97424 
Ar 19.5579 11.1046 5.75054 
Ar 19.8121 14.4161 7.68064 
Ar 22.9537 12.848 8.04416 
Ar 25.322 16.0127 7.9077 
Ar 26.2466 9.85274 8.29725 
Ar 27.3987 15.4769 4.42367 
Ar 30.0798 9.73381 7.43997 
Ar 32.1541 15.9575 9.14185 
Ar 33.5691 12.7639 6.57416 
Ar 37.1041 14.2318 7.41256 
Ar 3.60981 17.3623 6.07561 
Ar 5.2734 19.5028 9.81628 
Ar 7.12305 15.9432 9.14807 
Ar 8.74289 20.3156 7.80849 
Ar 10.1388 17.1346 6.60583 
Ar 13.2914 24.6144 2.29841 
Ar 13.7397 19.0488 6.42554 
Ar 15.5383 22.1368 5.55204 
Ar 18.5178 17.9746 6.06073 
Ar 21.5365 23.5412 8.40069 
Ar 23.0138 18.8059 7.52038 
Ar 24.4089 22.5254 6.6077 
Ar 24.4493 17.3822 4.16041 
Ar 28.0815 21.3668 7.7412 
Ar 29.2506 18.3754 6.68051 
Ar 31.1426 22.4386 4.74004 
Ar 34.1713 19.9699 8.13425 
Ar 35.3564 23.6275 7.80862 
Ar 4.59435 25.5947 9.61418 
Ar 5.8747 28.996 9.67534 
Ar 9.22223 26.9925 9.78018 
Ar 9.97167 29.7671 4.0966 
Ar 11.3848 22.7989 6.85569 
Ar 13.411 28.1888 4.94407 
Ar 14.0666 24.9492 7.07065 
Ar 16.4434 28.5122 7.33119 
Ar 17.6872 24.6641 7.97889 
Ar 20.0256 27.4596 6.57792 
Ar 23.1929 26.1015 6.4499 
Ar 24.6597 28.7106 10.0276 
Ar 26.4577 26.1127 7.2537 
Ar 27.6785 29.5605 8.5261 
Ar 31.3853 25.8017 6.41045 
Ar 31.319 29.5864 5.47955 
Ar 36.0454 27.0642 6.70816 
Ar 35.8789 32.2577 9.65988 
