216
#
Ar -1.00132 0.700223 -2.15425 
Ar 1.25789 1.52178 1.87201 
Ar 1.64363 -1.24805 -0.40161 
Ar 4.62983 2.22975 1.65043 
Ar 6.43172 -1.23871 2.57029 
Ar 7.9076 2.40674 0.00349356 
Ar 8.37976 1.08863 -3.18898 
Ar 11.8829 3.27729 -0.982027 
Ar 11.6219 -0.713226 -2.39242 
Ar 18.4156 2.21398 1.75127 
Ar 15.5555 0.319759 0.503554 
Ar 21.9475 4.38232 -3.31264 
Ar 21.2825 1.3682 -0.687468 
Ar 25.2786 2.91949 1.20871 
Ar 27.3602 -0.607178 1.87652 
Ar 28.6387 2.95746 -0.16488 
Ar 30.929 0.447251 1.24731 
Ar 32.128 4.14539 -0.19107 
Ar -0.0824596 7.75312 4.68833 
Ar 2.03978 9.37851 1.0448 
Ar 1.92002 5.14136 2.0455 
Ar 6.15993 12.8838 -0.759192 
Ar 5.49187 4.59417 -1.53871 
Ar 10.3004 9.91666 -2.5368 
Ar 9.36578 5.70166 -2.22569 
Ar 13.1302 11.3571 -0.0670853 
Ar 12.1281 7.21318 -0.248231 
Ar 16.8551 9.49285 1.31813 
Ar 19.705 7.57131 -0.655272 
Ar 20.7288 11.1795 -1.31055 
Ar 22.9851 8.2472 -3.41439 
Ar 23.6827 12.1801 0.676307 
Ar 26.9895 6.57705 2.4976 
Ar 28.5612 13.639 -2.73114 
Ar 28.7232 9.06715 -0.126094 
Ar 31.5238 12.4038 0.131374 
Ar 2.3108 13.1666 -0.0565793 
Ar 1.23735 18.1713 1.08357 
Ar 2.85844 16.4264 -2.07561 
Ar 4.86708 19.2494 2.80807 
Ar 5.69174 15.8185 1.44041 
Ar 8.31966 19.644 0.790658 
Ar 12.612 15.2689 0.638199 
Ar 12.0207 18.53 -1.47976 
Ar 15.7605 13.2439 2.063 
Ar 15.4005 19.286 -1.22536 
Ar 19.1141 13.906 1.03092 
Ar 19.6085 18.0985 -0.388339 
Ar 22.5052 15.4346 -0.604045 
Ar 22.6293 18.9264 1.2565 
Ar 27.7619 16.2055 -0.176289 
Ar 25.6317 19.1148 0.107119 
Ar 27.6854 12.7202 0.906904 
Ar 29.964 19.0443 -0.731207 
Ar -1.58462 22.089 -2.0183 
Ar 0.8328 24.0671 -0.0215908 
Ar 3.90576 22.179 0.0591932 
Ar 5.59738 24.2499 2.54993 
Ar 7.49732 24.0311 -0.703881 
Ar 9.50336 26.0734 2.55584 
Ar 11.2678 22.3644 0.309009 
Ar 11.0191 25.0868 -1.47185 
Ar 15.2538 22.8742 -1.69357 
Ar 18.2888 23.976 0.806737 
Ar 18.3357 21.2674 -2.39335 
Ar 18.689 27.7109 0.115471 
Ar 21.7197 24.1876 2.03135 
Ar 22.039 26.7895 -0.893017 
Ar 25.03 22.6379 -1.39303 
Ar 27.1469 25.1429 0.017087 
Ar 28.4147 22.0885 1.02111 
Ar 30.0493 25.6588 -1.89575 
Ar 1.26084 0.674385 5.78906 
Ar 2.79349 4.00667 6.14768 
Ar 5.34488 0.475761 5.63017 
Ar 6.12058 6.14496 1.96908 
Ar 10.1142 4.93405 1.96528 
Ar 13.373 5.99904 2.7291 
Ar 13.7325 2.53281 2.56999 
Ar 16.1302 5.1369 0.386279 
Ar 16.7044 -0.669389 4.71693 
Ar 18.1832 5.9191 3.08943 
Ar 18.9566 3.03159 5.22585 
Ar 21.5049 4.27717 2.32912 
Ar 24.1315 3.32141 4.93101 
Ar 25.9489 6.26469 6.69715 
Ar 28.1897 3.13002 3.54284 
Ar 30.942 6.68406 1.81853 
Ar 32.0007 3.45911 4.47374 
Ar 29.5551 6.06618 5.52147 
Ar 2.94771 6.93959 9.23131 
Ar 3.56595 9.89144 4.48594 
Ar 6.64446 12.075 2.70811 
Ar 9.87559 12.8341 0.56442 
Ar 9.27769 8.63854 1.37097 
Ar 11.0876 13.3882 3.97467 
Ar 12.1266 9.27165 3.10963 
Ar 16.2768 11.0475 4.81405 
Ar 15.3621 7.53947 5.32942 
Ar 17.9746 14.0163 4.65179 
Ar 20.6648 10.1173 2.50288 
Ar 24.5066 7.12547 -0.236321 
Ar 24.433 9.23086 3.95664 
Ar 25.7689 12.631 4.48676 
Ar 28.3105 9.39057 4.61439 
Ar 29.8941 13.4016 4.35916 
Ar 31.4393 10.5083 3.31431 
Ar 33.515 13.0705 3.38017 
Ar -0.896091 15.9366 5.17412 
Ar 0.255612 19.9809 5.15013 
Ar 3.95612 14.2062 3.93156 
Ar 7.28777 18.1727 5.48018 
Ar 9.44488 16.2895 2.30173 
Ar 10.9206 19.3912 4.20295 
Ar 13.8869 15.7418 4.65268 
Ar 15.0798 21.7815 2.14852 
Ar 16.1862 16.843 1.30473 
Ar 18.364 20.194 2.46698 
Ar 20.3775 16.7105 3.32135 
Ar 21.3207 20.4306 4.52889 
Ar 21.9288 13.7855 4.03588 
Ar 24.3182 21.9468 2.59647 
Ar 24.6019 16.0405 2.12083 
Ar 27.8252 19.4932 4.85567 
Ar 30.7661 16.8695 2.21498 
Ar 32.2174 21.2244 1.71088 
Ar 2.35832 23.7544 4.75466 
Ar 3.14261 27.3995 2.62778 
Ar 4.71451 21.1457 5.60954 
Ar 6.70482 26.0751 5.77569 
Ar 8.38999 22.049 4.93529 
Ar 12.2641 28.8163 1.19222 
Ar 10.0706 26.4392 6.20825 
Ar 14.8111 26.3821 -0.275776 
Ar 16.614 24.9714 3.7435 
Ar 20.0479 27.3661 3.58929 
Ar 19.2075 23.1168 5.20924 
Ar 23.2443 29.4351 2.5008 
Ar 24.9673 25.9767 2.96483 
Ar 26.0887 29.5549 4.96042 
Ar 27.34 23.0264 4.24894 
Ar 28.4552 26.4808 4.6639 
Ar 30.3071 25.2651 1.65584 
Ar 32.8328 27.6155 3.2493 
Ar 5.45318 9.7313 11.4047 
Ar 6.19697 7.19013 6.61734 
Ar 7.30037 3.69701 6.05588 
Ar 10.6063 7.05279 5.50042 
Ar 11.5464 3.52082 5.70455 
Ar 13.355 5.69823 7.6916 
Ar 15.4503 3.51642 5.92375 
Ar 15.1939 8.1998 9.38299 
Ar 17.6233 2.58643 8.8615 
Ar 18.5007 6.14964 6.97094 
Ar 22.8084 0.371681 6.62807 
Ar 21.583 6.89161 4.70689 
Ar 25.1379 2.97967 8.72416 
Ar 29.0856 5.95031 9.03768 
Ar 28.3422 2.86894 7.30604 
Ar 32.4836 8.38717 9.81707 
Ar 32.4745 5.57226 7.28955 
Ar 35.9251 10.543 8.74672 
Ar 6.2488 10.3539 7.57778 
Ar 7.721 14.5106 4.79756 
Ar 8.99961 10.3627 5.10773 
Ar 9.02804 13.798 8.03938 
Ar 13.5805 10.4778 7.01227 
Ar 13.4392 14.003 7.76395 
Ar 16.7029 11.6691 8.92474 
Ar 16.4741 15.6695 8.47365 
Ar 19.6511 11.1795 6.07536 
Ar 19.9484 15.0212 7.45058 
Ar 23.4013 12.9148 7.55821 
Ar 25.0167 16.291 7.98567 
Ar 25.9876 10.3576 8.21917 
Ar 27.2037 15.9171 4.20122 
Ar 30.4364 10.545 7.74451 
Ar 31.4214 15.5044 9.65504 
Ar 33.3358 13.2236 6.97409 
Ar 37.4127 13.4898 7.28816 
Ar 2.55511 17.1446 4.65314 
Ar 4.78537 19.4815 9.3471 
Ar 7.17359 16.9366 8.81139 
Ar 8.73932 20.3255 8.0278 
Ar 10.7697 16.5675 6.58917 
Ar 12.6373 24.2834 3.17406 
Ar 14.4778 19.0159 6.03398 
Ar 15.7409 22.2422 5.83963 
Ar 18.6614 18.1507 6.24174 
Ar 21.1722 23.2136 9.01586 
Ar 22.8002 19.2005 8.74774 
Ar 23.5938 21.9707 6.47343 
Ar 23.7642 17.9066 4.87926 
Ar 28.1153 21.5248 7.77099 
Ar 29.0625 17.1952 7.44856 
Ar 30.722 22.5944 5.62691 
Ar 33.0595 19.1466 8.47895 
Ar 35.1625 22.5395 7.99637 
Ar 4.46817 25.5561 9.9303 
Ar 4.56478 29.3922 9.30476 
Ar 7.78144 27.7153 10.539 
Ar 9.22486 30.9188 3.34856 
Ar 12.4746 21.7895 7.26685 
Ar 12.627 29.1987 5.29735 
Ar 13.9745 25.5754 6.75074 
Ar 15.2617 28.9457 7.98995 
Ar 18.178 25.7575 8.32252 
Ar 19.3068 28.9508 6.91328 
Ar 22.0137 25.5482 6.22232 
Ar 25.1135 28.4882 9.61626 
Ar 26.422 24.9023 7.29457 
Ar 28.4785 29.0788 9.13103 
Ar 32.6211 25.925 6.52864 
Ar 30.2099 29.4782 4.7293 
Ar 35.9894 26.7512 6.94293 
Ar 34.9739 31.87 9.43932 
