216
#
Ar -1.64972 1.02767 -2.06942 
Ar 0.96069 1.57853 2.23058 
Ar 1.37807 -0.677499 -1.34103 
Ar 4.73942 1.29452 1.48914 
Ar 7.19526 -1.62124 2.20375 
Ar 9.46005 1.61994 0.139396 
Ar 8.17084 0.051177 -4.02853 
Ar 12.6644 3.86701 -0.441968 
Ar 12.2669 -0.758511 -2.60144 
Ar 18.4998 2.26652 1.36415 
Ar 15.4441 1.25313 -0.420515 
Ar 22.1031 4.39864 -2.3489 
Ar 21.5652 0.741151 -0.140659 
Ar 25.1538 2.34794 1.24326 
Ar 27.5299 0.0137013 1.92848 
Ar 28.4212 3.08526 0.137368 
Ar 30.6649 -0.911147 0.950942 
Ar 32.2064 3.67291 -0.0880073 
Ar 1.12993 7.4367 4.90372 
Ar 1.82136 11.0332 1.81646 
Ar 2.008 5.98298 1.54289 
Ar 5.8221 12.4126 0.130935 
Ar 6.57331 3.67602 -2.02763 
Ar 8.62792 9.02786 -2.66821 
Ar 9.58594 5.50038 -1.39285 
Ar 12.1846 11.4107 -0.306428 
Ar 12.8489 7.49405 -0.24263 
Ar 17.3191 10.7115 2.0938 
Ar 19.3574 6.85261 0.264909 
Ar 20.0384 11.6333 -0.678159 
Ar 22.4572 8.80325 -2.71398 
Ar 24.6024 11.8902 1.21515 
Ar 26.0222 6.37643 2.69569 
Ar 28.106 13.6447 -3.09709 
Ar 28.1956 8.7448 0.131933 
Ar 30.5991 11.9906 -0.535446 
Ar 1.82843 13.5512 -0.594654 
Ar 0.212724 17.3986 1.08745 
Ar 2.67478 16.8442 -1.39681 
Ar 3.4164 18.6834 2.38681 
Ar 6.26331 16.0267 1.93917 
Ar 8.3492 19.1275 1.08799 
Ar 12.1914 14.7033 0.781782 
Ar 11.2029 18.3692 -0.922636 
Ar 15.1528 13.4695 1.95383 
Ar 16.237 19.0243 -1.0341 
Ar 18.8405 14.6769 1.17802 
Ar 19.7825 17.6954 -1.21744 
Ar 22.1966 14.7597 -0.588 
Ar 22.5683 19.7358 0.399906 
Ar 29.1482 15.3252 0.407797 
Ar 26.4343 18.6363 -0.82205 
Ar 28.1437 12.5593 2.30493 
Ar 30.0298 19.1795 -0.215677 
Ar -1.41423 22.867 -2.38159 
Ar 0.468817 25.4816 -0.09068 
Ar 2.8497 21.9428 -0.294975 
Ar 5.21171 24.1717 2.54222 
Ar 7.40365 23.0203 -0.466702 
Ar 9.82924 25.0216 2.80855 
Ar 10.8263 22.0389 1.08824 
Ar 12.0458 24.6825 -0.833099 
Ar 14.8945 22.0507 -1.63426 
Ar 17.9518 23.4996 0.239242 
Ar 18.6657 20.9966 -3.04809 
Ar 18.4629 28.3244 -0.862152 
Ar 21.675 23.5064 1.6033 
Ar 21.761 26.426 -0.477909 
Ar 24.997 23.3808 -0.884155 
Ar 26.593 26.1433 0.305605 
Ar 28.2718 22.1783 0.732131 
Ar 29.6071 26.1554 -1.42757 
Ar 1.72701 1.8576 6.0964 
Ar 3.67795 4.91299 4.32056 
Ar 5.08913 0.75804 5.00589 
Ar 6.42076 5.46224 2.2044 
Ar 10.3359 4.52974 2.2412 
Ar 12.9731 6.61836 3.60999 
Ar 13.3902 2.2781 2.62005 
Ar 15.6098 5.176 1.01562 
Ar 16.2026 0.890933 3.70299 
Ar 18.4204 6.90053 3.91236 
Ar 20.5842 2.45756 4.94195 
Ar 21.9253 3.92472 1.3677 
Ar 23.9529 2.86662 4.49081 
Ar 26.409 6.18234 6.68526 
Ar 27.6863 3.19631 3.57544 
Ar 29.8403 5.95258 1.76557 
Ar 31.7428 3.5059 3.89297 
Ar 30.5168 7.20239 5.0694 
Ar 3.02878 6.35893 7.76037 
Ar 2.88279 10.711 5.2948 
Ar 4.77929 8.89328 2.63992 
Ar 8.81485 12.7684 1.97209 
Ar 10.0249 7.99853 2.2432 
Ar 11.3053 13.7118 4.40637 
Ar 12.2884 10.3207 3.45791 
Ar 15.6962 11.7537 5.65621 
Ar 15.6504 8.32606 5.34668 
Ar 17.833 14.9203 4.79424 
Ar 20.6664 9.7934 2.63556 
Ar 23.3061 8.10226 0.869431 
Ar 23.6305 8.9832 4.71104 
Ar 25.2419 12.4619 5.14093 
Ar 27.9385 9.62838 3.70036 
Ar 30.4083 12.4311 4.9747 
Ar 31.3207 9.47107 2.39309 
Ar 32.6849 14.1357 2.28743 
Ar -0.206399 16.0326 5.6021 
Ar 0.216102 19.6537 4.35018 
Ar 3.23252 14.233 2.55702 
Ar 6.98739 18.2511 4.74239 
Ar 9.984 16.844 3.02293 
Ar 10.7505 20.1092 4.88412 
Ar 13.8681 16.1029 4.25837 
Ar 14.831 21.8738 2.21756 
Ar 16.1575 18.1466 2.5786 
Ar 18.4315 21.2179 2.90006 
Ar 20.9007 16.847 3.06412 
Ar 21.8652 20.7928 4.03694 
Ar 21.9648 13.433 3.93536 
Ar 24.7891 21.7826 2.43995 
Ar 25.3415 15.706 1.02964 
Ar 27.5665 19.8463 3.67525 
Ar 30.1855 17.4112 3.02427 
Ar 32.3355 21.789 1.07115 
Ar 1.24109 24.1804 4.49651 
Ar 3.19567 27.7423 2.97057 
Ar 4.59906 20.9752 6.13225 
Ar 6.45153 25.9629 6.40584 
Ar 8.02756 22.3798 4.43149 
Ar 11.9209 28.2305 1.14808 
Ar 10.3964 26.3123 6.25181 
Ar 15.4295 27.1786 0.80589 
Ar 17.3857 24.8729 3.67918 
Ar 19.2795 28.1523 2.94474 
Ar 20.3613 24.1618 5.00373 
Ar 22.7967 28.7631 3.54513 
Ar 24.6993 25.4297 3.05409 
Ar 25.9491 29.3116 5.12656 
Ar 27.6672 23.77 4.83634 
Ar 28.7864 27.1807 4.77335 
Ar 30.2519 24.8967 1.7946 
Ar 32.7954 27.3258 3.45745 
Ar 5.51248 7.19276 10.3706 
Ar 6.41061 7.31854 5.93128 
Ar 7.07976 3.58697 5.55263 
Ar 9.8175 6.4327 5.55533 
Ar 10.6978 2.57193 6.6617 
Ar 13.0366 6.39465 7.14919 
Ar 14.4033 3.06523 7.14249 
Ar 16.5843 9.08974 9.43986 
Ar 18.1868 3.16636 8.73192 
Ar 19.1392 7.10415 7.3865 
Ar 22.8001 0.888445 7.37249 
Ar 21.5618 5.87886 5.32109 
Ar 25.603 3.06195 8.41098 
Ar 29.4708 6.18183 8.8642 
Ar 29.3704 3.51516 6.9171 
Ar 33.1695 7.35055 10.2127 
Ar 32.6245 5.016 6.8906 
Ar 35.7753 9.96757 9.12712 
Ar 6.00021 11.1132 7.09325 
Ar 7.56749 14.4822 5.1337 
Ar 8.68428 10.6297 4.84343 
Ar 9.13186 12.5423 8.19731 
Ar 11.6099 9.70074 6.81716 
Ar 13.3541 14.3957 7.46434 
Ar 16.4724 12.593 9.05116 
Ar 16.2885 16.1828 7.86178 
Ar 19.5327 11.1889 5.78628 
Ar 19.7067 14.3634 7.81167 
Ar 22.9836 12.7052 7.91131 
Ar 25.1375 15.8893 7.80215 
Ar 26.2287 9.68058 8.33738 
Ar 27.4949 15.4535 4.47822 
Ar 30.0146 9.90085 7.45505 
Ar 32.0404 15.9611 9.14022 
Ar 33.5065 12.7909 6.68834 
Ar 36.9742 14.144 7.52111 
Ar 3.65232 17.3583 6.19121 
Ar 5.32842 19.5371 9.64924 
Ar 7.02766 16.0725 9.09335 
Ar 8.57775 20.3497 7.71906 
Ar 10.0687 17.1603 6.7114 
Ar 13.3464 24.8687 2.50228 
Ar 13.6974 19.213 6.59903 
Ar 15.5347 22.1355 5.65225 
Ar 18.2883 18.1891 6.08756 
Ar 21.4592 23.4739 8.43362 
Ar 22.9171 18.673 7.6134 
Ar 24.4085 22.6748 6.4433 
Ar 24.5387 17.3281 4.00917 
Ar 28.09 21.3666 7.84701 
Ar 29.4604 18.3783 6.58095 
Ar 31.0258 22.4627 4.80946 
Ar 34.4161 19.9677 8.177 
Ar 35.4017 23.811 7.9249 
Ar 4.66321 25.6305 9.5146 
Ar 5.96186 28.7018 9.74907 
Ar 9.22738 26.9384 9.70442 
Ar 10.1142 29.6446 3.96244 
Ar 11.0984 22.9857 6.87697 
Ar 13.267 28.1257 4.77075 
Ar 13.9916 25.0207 7.16536 
Ar 16.3998 28.6801 7.06269 
Ar 17.7389 24.5935 7.77001 
Ar 19.9659 27.2995 6.56802 
Ar 23.2012 26.1385 6.5777 
Ar 24.4991 28.5583 10.1022 
Ar 26.6503 25.9162 7.26313 
Ar 27.5151 29.5428 8.5686 
Ar 31.3365 25.779 6.34325 
Ar 31.2541 29.7031 5.48528 
Ar 36.057 27.273 6.6231 
Ar 35.8535 32.1702 9.64452 
