216
#
Ar -0.47143 0.846193 -2.04537 
Ar 1.0963 1.61171 1.72713 
Ar 2.44187 -0.67846 -0.733303 
Ar 6.09387 2.67732 1.30326 
Ar 6.84902 -2.08708 1.14247 
Ar 9.23462 1.22043 0.0860765 
Ar 9.49656 -0.52234 -3.67302 
Ar 13.4174 4.10335 -1.27437 
Ar 13.1816 0.213947 -2.37579 
Ar 18.2809 4.20561 -0.501254 
Ar 16.3721 1.00784 -0.497812 
Ar 22.0126 4.57652 -1.07759 
Ar 20.8465 1.43455 0.64535 
Ar 24.4747 2.70893 1.23772 
Ar 26.5668 -0.168017 2.77764 
Ar 27.5975 2.8314 -0.110097 
Ar 29.9099 -0.0717751 0.923265 
Ar 31.4795 4.57119 -0.0281176 
Ar 0.457998 8.16136 4.09977 
Ar 1.15911 10.8423 2.10872 
Ar 2.54842 5.62025 2.46385 
Ar 4.84987 12.5961 0.227679 
Ar 6.94638 3.00206 -2.75968 
Ar 7.85809 7.88577 -1.89408 
Ar 9.58121 5.00865 -0.752931 
Ar 12.3089 11.9784 -0.321185 
Ar 12.7164 7.56838 0.0829146 
Ar 17.0665 11.4986 2.6085 
Ar 19.9247 7.7586 0.106741 
Ar 19.9025 11.8245 -1.1177 
Ar 22.3622 8.4816 -2.41126 
Ar 23.7587 12.5344 -1.74742 
Ar 25.5898 5.98775 3.10072 
Ar 27.1764 13.0035 -2.43898 
Ar 27.1297 9.74605 0.321626 
Ar 30.524 12.1926 -1.25645 
Ar 1.52405 13.023 -0.779787 
Ar 1.04835 17.8911 0.602905 
Ar 3.66316 15.834 -0.758263 
Ar 4.6795 18.7486 1.90184 
Ar 6.77128 15.5308 2.00409 
Ar 8.53816 18.9541 0.549244 
Ar 10.8851 15.0252 0.389514 
Ar 12.2523 18.3109 0.363376 
Ar 14.4325 14.0535 1.7229 
Ar 15.791 18.2387 -0.407994 
Ar 17.9678 14.4797 0.194221 
Ar 19.4048 17.8784 -0.312867 
Ar 21.5537 14.5789 0.288073 
Ar 22.6864 17.8819 1.0191 
Ar 29.8394 15.4718 -0.809297 
Ar 26.3519 19.4493 -0.99825 
Ar 27.9815 13.1644 1.54116 
Ar 29.6694 19.3923 -0.345527 
Ar -1.50104 22.2166 -2.41482 
Ar 1.24431 25.0494 -0.289511 
Ar 2.53577 21.4993 -0.0946394 
Ar 5.17839 23.9608 3.03039 
Ar 6.78256 22.5456 -0.36955 
Ar 9.4093 24.6374 1.89173 
Ar 10.9611 21.5861 0.0578458 
Ar 12.5739 24.8201 0.104163 
Ar 14.6299 22.4263 -1.89302 
Ar 18.2148 25.0395 -0.40177 
Ar 18.2186 21.4858 -1.45177 
Ar 20.5603 27.7357 -1.60044 
Ar 21.6189 21.7419 -0.00596131 
Ar 22.4549 25.28 0.618745 
Ar 24.7283 23.1478 -1.1696 
Ar 27.6306 26.4758 0.840405 
Ar 28.3214 22.7461 0.825572 
Ar 30.5688 25.9071 -0.976897 
Ar 1.98186 1.87346 5.29645 
Ar 4.43277 4.58323 5.32195 
Ar 5.54382 0.546881 4.23443 
Ar 7.48928 6.11658 2.14542 
Ar 10.4822 3.51512 2.86567 
Ar 12.7621 6.87282 3.65478 
Ar 14.0147 3.19756 2.341 
Ar 15.9198 6.20393 1.62598 
Ar 17.2639 0.952966 3.81647 
Ar 18.7009 5.9353 3.79221 
Ar 20.596 2.4994 3.79617 
Ar 21.9777 6.3133 2.31588 
Ar 24.2479 2.77323 4.7714 
Ar 26.7117 5.7662 6.37437 
Ar 28.5818 2.52859 3.75452 
Ar 29.1211 5.73034 1.99836 
Ar 32.1575 4.12691 3.70188 
Ar 30.1319 6.63592 5.32444 
Ar 2.30283 7.03905 7.25978 
Ar 3.31047 10.5272 5.00235 
Ar 4.64128 8.57828 2.31224 
Ar 8.47889 12.1719 1.9033 
Ar 9.52401 8.72641 1.05771 
Ar 11.3606 12.7791 4.79815 
Ar 13.3792 10.3822 2.84776 
Ar 15.0064 12.8345 5.33875 
Ar 15.6242 9.06775 6.09507 
Ar 18.5109 14.4411 3.99598 
Ar 20.0473 9.4176 4.06103 
Ar 23.6507 9.34323 1.3111 
Ar 23.3465 8.73174 5.07817 
Ar 25.0312 12.0393 5.04615 
Ar 27.4593 9.29781 3.94175 
Ar 29.6771 12.6486 5.29899 
Ar 30.7386 9.51769 1.53758 
Ar 32.63 14.1122 2.72987 
Ar 0.0316548 17.0151 5.08646 
Ar 1.7876 20.1065 3.84692 
Ar 3.04518 14.5229 3.26834 
Ar 7.63187 18.2882 4.87128 
Ar 9.82343 15.8305 3.79756 
Ar 10.8616 19.3591 3.55674 
Ar 13.0592 16.3275 4.13682 
Ar 14.5122 20.7753 2.15213 
Ar 16.2 17.7041 3.13088 
Ar 18.1466 20.5188 3.24693 
Ar 20.153 17.5623 3.42927 
Ar 21.5443 21.1198 4.91954 
Ar 21.9697 13.2921 3.52257 
Ar 25.0938 21.3171 2.69076 
Ar 25.858 15.6412 2.11585 
Ar 27.9037 19.83 3.94401 
Ar 30.4705 17.7323 2.72386 
Ar 32.2103 20.9144 1.38668 
Ar 1.65407 23.8452 3.77918 
Ar 3.3262 27.0932 3.01633 
Ar 4.87918 21.4374 6.41895 
Ar 5.97259 25.4765 6.1396 
Ar 9.25849 22.3813 5.20208 
Ar 12.0162 28.3466 1.44531 
Ar 10.333 25.8568 5.04623 
Ar 15.861 27.2093 1.10316 
Ar 16.8077 24.3931 3.48608 
Ar 19.6036 27.749 1.96942 
Ar 20.6971 24.7585 3.73425 
Ar 22.7646 29.002 3.35406 
Ar 25.1107 25.9075 3.36211 
Ar 25.5891 29.0964 6.5281 
Ar 27.974 24.0064 4.67421 
Ar 28.9007 27.4719 4.61404 
Ar 30.5017 24.7824 2.30798 
Ar 32.888 27.3034 2.55062 
Ar 4.54426 5.83579 10.2763 
Ar 5.65681 8.09389 5.91628 
Ar 8.05709 3.35575 4.97866 
Ar 9.24291 6.77679 5.74778 
Ar 11.1598 3.43566 6.86938 
Ar 13.4045 6.67281 7.70661 
Ar 15.3615 3.35867 6.00972 
Ar 16.3075 8.23535 9.83507 
Ar 18.9361 2.80242 7.16777 
Ar 19.2739 7.20071 7.48734 
Ar 22.1981 1.19002 7.9101 
Ar 21.8696 4.83031 6.30329 
Ar 25.223 3.48551 8.65413 
Ar 28.085 6.4379 9.55901 
Ar 29.5581 3.20697 7.21476 
Ar 32.1782 7.07756 8.9667 
Ar 33.0002 4.16682 7.26396 
Ar 35.9546 9.67179 9.66955 
Ar 5.8152 11.1744 8.06694 
Ar 7.12048 13.5935 5.14663 
Ar 8.27451 10.3339 4.80333 
Ar 8.79162 13.8831 9.13487 
Ar 12.2204 10.3072 7.37611 
Ar 13.1454 14.6969 8.3967 
Ar 15.2947 12.0525 9.1752 
Ar 16.6212 15.2515 7.35068 
Ar 18.0002 11.4935 6.90533 
Ar 20.4073 15.2532 7.6987 
Ar 21.5651 11.8274 6.60374 
Ar 24.4394 15.1317 7.08464 
Ar 25.8146 9.61666 7.65014 
Ar 28.0119 16.3589 5.6555 
Ar 29.4918 9.55741 7.65615 
Ar 32.1784 14.7223 7.60351 
Ar 33.0498 11.3784 6.73568 
Ar 35.9945 13.8241 7.06071 
Ar 3.56268 17.6801 6.33371 
Ar 5.02164 19.445 9.36558 
Ar 6.68151 16.4052 7.78562 
Ar 8.31606 20.5504 8.40208 
Ar 10.6466 17.1369 7.45796 
Ar 13.1893 23.6989 4.3754 
Ar 13.6052 18.8814 7.52635 
Ar 15.8096 21.4272 5.87134 
Ar 18.8433 18.7031 6.88003 
Ar 20.7162 24.1107 8.19927 
Ar 23.3888 18.2498 8.15382 
Ar 24.4615 23.151 6.02502 
Ar 24.5912 18.1131 4.64175 
Ar 28.1658 21.4121 7.4415 
Ar 30.5074 18.6766 7.00913 
Ar 31.1806 22.1477 4.82568 
Ar 34.0878 19.884 7.5129 
Ar 34.924 23.4959 7.17079 
Ar 4.81014 25.0958 9.42715 
Ar 5.9942 29.0174 8.80782 
Ar 8.54603 25.8636 9.16032 
Ar 9.02976 29.4921 3.71903 
Ar 11.4891 23.4257 7.6735 
Ar 13.1821 29.7692 4.77393 
Ar 13.7011 26.1281 7.70666 
Ar 16.9749 29.324 6.98917 
Ar 17.6093 25.8491 6.84326 
Ar 20.2723 28.4694 5.90166 
Ar 23.1607 26.5664 7.12996 
Ar 24.1853 28.8554 10.5763 
Ar 26.8195 25.6699 7.66172 
Ar 27.6482 28.8835 9.18344 
Ar 31.638 25.6434 5.80393 
Ar 31.3367 29.8195 4.61879 
Ar 35.7072 27.5297 6.54647 
Ar 36.0551 32.0464 9.01291 
