216
#
Ar -0.880347 0.657369 -2.11549 
Ar 1.18953 1.49415 1.98911 
Ar 1.66021 -1.26334 -0.454106 
Ar 4.63113 2.16979 1.64875 
Ar 6.48673 -1.22819 2.6637 
Ar 7.84611 2.32664 0.0442701 
Ar 8.50246 1.04306 -3.21313 
Ar 11.9649 3.2062 -0.986555 
Ar 11.5274 -0.691021 -2.42143 
Ar 18.5042 2.23408 1.73588 
Ar 15.5266 0.301588 0.525508 
Ar 21.8698 4.28013 -3.31876 
Ar 21.2564 1.39643 -0.653754 
Ar 25.2768 2.8796 1.14995 
Ar 27.3971 -0.608954 1.78169 
Ar 28.6131 2.89693 -0.0788315 
Ar 30.9278 0.446594 1.34397 
Ar 32.2107 4.1382 -0.093247 
Ar -0.0638781 7.7768 4.71429 
Ar 2.06412 9.34612 0.972712 
Ar 2.01629 5.25923 1.95565 
Ar 6.14956 12.841 -0.687812 
Ar 5.53005 4.5475 -1.53423 
Ar 10.2861 9.92574 -2.47875 
Ar 9.41059 5.70972 -2.22286 
Ar 13.0505 11.3409 -0.0690938 
Ar 12.1547 7.18851 -0.247096 
Ar 16.9083 9.50048 1.35586 
Ar 19.7519 7.66239 -0.608434 
Ar 20.6996 11.0674 -1.29926 
Ar 22.9325 8.20943 -3.44112 
Ar 23.6526 12.2406 0.725951 
Ar 27.0671 6.57113 2.48908 
Ar 28.6151 13.578 -2.77223 
Ar 28.6268 9.03076 -0.145701 
Ar 31.5559 12.3908 0.130617 
Ar 2.26983 13.2026 -0.0497777 
Ar 1.16074 18.1858 1.02094 
Ar 2.77237 16.464 -2.13347 
Ar 4.87978 19.2608 2.77393 
Ar 5.71158 15.7509 1.43239 
Ar 8.2139 19.7066 0.784646 
Ar 12.5536 15.3036 0.618007 
Ar 11.9945 18.5452 -1.36505 
Ar 15.6944 13.2372 2.03129 
Ar 15.4788 19.2827 -1.1656 
Ar 19.0176 13.8958 1.02405 
Ar 19.579 18.1028 -0.415953 
Ar 22.5657 15.3587 -0.477403 
Ar 22.5553 18.9494 1.25071 
Ar 27.7684 16.1319 -0.178598 
Ar 25.6714 19.179 0.0876504 
Ar 27.6597 12.7753 0.960405 
Ar 29.9349 19.1394 -0.634689 
Ar -1.59457 22.1268 -1.93349 
Ar 0.845582 24.0923 -0.0669974 
Ar 3.8067 22.1552 0.112785 
Ar 5.57058 24.313 2.53497 
Ar 7.61777 24.0903 -0.687368 
Ar 9.4459 26.16 2.57374 
Ar 11.2423 22.3188 0.278611 
Ar 11.1704 25.0521 -1.49613 
Ar 15.3166 22.8673 -1.71813 
Ar 18.2364 23.9524 0.851538 
Ar 18.3128 21.3452 -2.46449 
Ar 18.6819 27.7424 0.086599 
Ar 21.631 24.2712 2.00765 
Ar 22.0572 26.7771 -0.943317 
Ar 25.0141 22.6489 -1.40605 
Ar 27.2016 25.211 0.0874641 
Ar 28.4225 22.0576 1.0802 
Ar 30.053 25.6859 -1.89789 
Ar 1.31053 0.627497 5.84422 
Ar 2.85492 4.03856 6.21777 
Ar 5.32313 0.468087 5.63725 
Ar 6.17498 6.17968 1.9143 
Ar 10.1505 4.96686 2.04305 
Ar 13.2866 6.1034 2.70175 
Ar 13.5803 2.63819 2.57178 
Ar 16.1589 5.13265 0.45261 
Ar 16.7107 -0.657779 4.61671 
Ar 18.1965 6.0206 3.16125 
Ar 18.9466 3.03828 5.27987 
Ar 21.4388 4.23951 2.28363 
Ar 24.1487 3.39011 4.94848 
Ar 25.9341 6.20763 6.69763 
Ar 28.1405 3.16339 3.49517 
Ar 30.9062 6.72626 1.69825 
Ar 31.9385 3.38322 4.38162 
Ar 29.5335 6.07837 5.40536 
Ar 2.96248 6.90868 9.13221 
Ar 3.52503 9.92856 4.59124 
Ar 6.6566 12.0372 2.77978 
Ar 9.72125 12.8467 0.627892 
Ar 9.16584 8.5163 1.34262 
Ar 11.0779 13.366 4.0398 
Ar 12.2423 9.30298 3.13008 
Ar 16.2853 11.0868 4.77793 
Ar 15.3369 7.51309 5.30584 
Ar 17.9576 14.0368 4.73056 
Ar 20.6942 10.0132 2.51042 
Ar 24.4116 7.20802 -0.278044 
Ar 24.3515 9.28252 3.99659 
Ar 25.7332 12.5402 4.51231 
Ar 28.473 9.33504 4.67652 
Ar 29.8324 13.3258 4.32927 
Ar 31.3907 10.5478 3.24688 
Ar 33.5936 13.0715 3.27754 
Ar -0.918095 15.8756 5.20998 
Ar 0.20834 19.9712 5.04709 
Ar 3.87121 14.2093 3.87381 
Ar 7.311 18.2322 5.42189 
Ar 9.48457 16.3468 2.33703 
Ar 10.8413 19.3812 4.28232 
Ar 13.8469 15.7707 4.75313 
Ar 15.0072 21.8125 2.2294 
Ar 16.2964 17.0386 1.3081 
Ar 18.4101 20.2246 2.55684 
Ar 20.4761 16.8691 3.22284 
Ar 21.4698 20.4854 4.55915 
Ar 21.8365 13.8246 4.10725 
Ar 24.4006 21.9424 2.50831 
Ar 24.5998 15.995 2.02067 
Ar 27.7723 19.3338 4.83519 
Ar 30.7424 16.9378 2.24035 
Ar 32.2244 21.245 1.7613 
Ar 2.37229 23.6847 4.69157 
Ar 3.17098 27.382 2.59206 
Ar 4.68426 21.1602 5.63456 
Ar 6.62776 26.1275 5.75685 
Ar 8.32776 21.978 4.862 
Ar 12.2951 28.7598 1.21413 
Ar 10.177 26.4831 6.25964 
Ar 14.7709 26.3489 -0.281712 
Ar 16.6818 24.9739 3.78883 
Ar 20.0876 27.2955 3.57168 
Ar 19.3097 23.175 5.22074 
Ar 23.2025 29.3384 2.58224 
Ar 24.9015 25.952 3.02516 
Ar 26.1808 29.5997 5.00129 
Ar 27.3535 23.111 4.13444 
Ar 28.3624 26.3878 4.72981 
Ar 30.4142 25.2266 1.61735 
Ar 32.8562 27.4972 3.23466 
Ar 5.45581 9.66063 11.3639 
Ar 6.12652 7.21811 6.65488 
Ar 7.29551 3.6484 6.09282 
Ar 10.561 7.10693 5.56875 
Ar 11.5783 3.53738 5.77375 
Ar 13.3299 5.80426 7.68361 
Ar 15.4783 3.34945 6.02243 
Ar 15.1011 8.17167 9.31693 
Ar 17.6725 2.54843 8.67848 
Ar 18.5381 6.08428 7.01248 
Ar 22.722 0.358553 6.66742 
Ar 21.6795 6.96478 4.6848 
Ar 25.1632 2.99393 8.78693 
Ar 29.0818 6.00571 9.087 
Ar 28.363 2.83435 7.21673 
Ar 32.5297 8.41093 9.77558 
Ar 32.5853 5.59196 7.2692 
Ar 35.957 10.4632 8.67779 
Ar 6.16849 10.5127 7.59235 
Ar 7.6714 14.4945 4.78543 
Ar 8.89221 10.4583 5.1209 
Ar 8.99712 13.7962 7.98131 
Ar 13.5186 10.3999 6.95853 
Ar 13.4122 14.0695 7.76548 
Ar 16.6826 11.7906 9.01805 
Ar 16.4776 15.6247 8.38126 
Ar 19.6476 11.1733 6.05446 
Ar 20.0104 15.0017 7.49643 
Ar 23.3755 12.9007 7.60002 
Ar 25.0295 16.3372 8.00569 
Ar 26.0608 10.3537 8.29335 
Ar 27.2047 15.9555 4.241 
Ar 30.4521 10.5661 7.80379 
Ar 31.4447 15.4694 9.59723 
Ar 33.3075 13.1895 6.95361 
Ar 37.4342 13.5061 7.33896 
Ar 2.55849 17.0936 4.731 
Ar 4.91441 19.439 9.39231 
Ar 7.16267 16.8993 8.84952 
Ar 8.67266 20.3227 8.03261 
Ar 10.7026 16.6282 6.59941 
Ar 12.7094 24.3091 3.2216 
Ar 14.4458 18.9531 6.06893 
Ar 15.7876 22.2554 5.64259 
Ar 18.7959 18.2463 6.27026 
Ar 21.1775 23.1284 9.05248 
Ar 22.8293 19.1507 8.66813 
Ar 23.6725 21.9997 6.50155 
Ar 23.8778 17.8201 4.71119 
Ar 28.1668 21.5827 7.80919 
Ar 29.0648 17.1472 7.34726 
Ar 30.6802 22.6247 5.61493 
Ar 33.149 19.206 8.48586 
Ar 35.0593 22.558 8.02436 
Ar 4.51679 25.5775 10.0106 
Ar 4.6523 29.3243 9.26778 
Ar 7.6593 27.6627 10.5875 
Ar 9.23381 30.8316 3.38746 
Ar 12.503 21.7372 7.16111 
Ar 12.6028 29.1952 5.23698 
Ar 13.8744 25.4827 6.67165 
Ar 15.336 28.9326 8.01399 
Ar 18.1842 25.6254 8.29945 
Ar 19.24 29.0483 6.94993 
Ar 22.006 25.5962 6.08495 
Ar 25.1129 28.5125 9.66828 
Ar 26.4282 24.8836 7.20915 
Ar 28.5539 29.1025 9.05526 
Ar 32.6162 25.8712 6.48948 
Ar 30.1345 29.4366 4.61917 
Ar 35.9357 26.8087 6.87787 
Ar 35.0388 31.9519 9.39917 
