216
#
Ar -0.517227 0.724599 -1.13705 
Ar 1.05216 1.05021 2.34264 
Ar 0.251077 -2.71301 0.0962411 
Ar 4.90969 1.79507 2.29874 
Ar 6.91179 -1.01433 2.14383 
Ar 8.5775 1.78961 0.294095 
Ar 8.18801 -1.63914 -4.91411 
Ar 12.1242 2.85754 0.77984 
Ar 12.2021 -0.425973 -1.5503 
Ar 18.4079 2.21383 2.44723 
Ar 16.3383 0.278834 -1.07866 
Ar 21.556 4.21716 -2.83046 
Ar 21.2891 1.05099 -1.07561 
Ar 24.6593 3.53653 0.47687 
Ar 26.5687 0.699982 1.52701 
Ar 28.2728 1.83961 -1.92234 
Ar 30.5282 0.142209 1.39459 
Ar 31.3787 4.05017 0.343074 
Ar 1.83014 7.72883 5.49094 
Ar 1.72855 10.4865 2.2679 
Ar 1.85231 5.75868 1.06263 
Ar 4.96233 13.0131 -1.4911 
Ar 6.29391 4.17523 -1.78293 
Ar 10.0756 9.4904 -2.43827 
Ar 10.2206 5.00932 -1.63127 
Ar 13.8332 11.1401 -1.25916 
Ar 13.2215 6.6299 -1.24611 
Ar 15.7491 8.7594 0.542387 
Ar 19.6334 6.87514 -1.06209 
Ar 21.2285 12.057 -0.0349547 
Ar 23.0634 9.88539 -2.58975 
Ar 24.9831 13.6916 0.261222 
Ar 26.0584 6.34638 2.10582 
Ar 28.3791 14.2409 -1.83076 
Ar 26.8349 9.67886 -0.329519 
Ar 30.8799 11.8794 0.165511 
Ar 1.48444 14.0085 0.211527 
Ar 0.857605 18.0895 1.48172 
Ar 3.41596 15.6277 -3.57466 
Ar 4.67812 20.749 3.03038 
Ar 4.79255 16.5205 0.285141 
Ar 7.31194 18.968 0.358732 
Ar 12.8974 15.3397 1.19931 
Ar 10.9222 16.7575 -1.71174 
Ar 17.4759 12.19 0.413774 
Ar 15.0155 20.7432 1.52031 
Ar 20.6398 15.5413 0.437077 
Ar 19.7115 18.2352 -3.3363 
Ar 22.9033 17.3981 -1.70937 
Ar 23.4212 17.9325 1.74369 
Ar 27.2148 16.8305 0.84806 
Ar 25.4022 19.9666 -0.964457 
Ar 28.1304 13.0682 2.25193 
Ar 29.9075 19.3809 0.725859 
Ar -0.937204 20.4772 -3.0785 
Ar -1.17345 23.0773 -0.365538 
Ar 2.7462 23.7208 -0.241195 
Ar 6.33879 24.7777 4.1036 
Ar 7.44582 22.5309 0.0876796 
Ar 9.78725 25.5914 3.38956 
Ar 11.1953 20.6255 -0.554682 
Ar 11.601 24.9383 -1.07147 
Ar 14.3117 22.1874 -1.89041 
Ar 17.9518 22.1935 2.22248 
Ar 17.0945 20.3966 -1.37542 
Ar 18.0845 26.2323 2.22971 
Ar 22.1497 24.9088 2.94834 
Ar 22.5295 26.9149 0.0898432 
Ar 24.4185 24.1692 -0.801053 
Ar 25.7781 26.6878 1.26916 
Ar 27.9027 22.569 0.276366 
Ar 29.1763 23.9976 -3.91192 
Ar 1.24735 1.537 6.08531 
Ar 2.95142 4.22969 4.61481 
Ar 4.88679 1.08889 6.10398 
Ar 5.53103 6.61376 2.35052 
Ar 8.97288 4.98336 1.85539 
Ar 11.8822 6.9828 2.6089 
Ar 12.8069 3.81967 4.18413 
Ar 15.3685 4.35027 1.43611 
Ar 15.3921 -0.087105 2.81398 
Ar 18.6795 6.32273 2.47808 
Ar 21.2 4.07082 4.54558 
Ar 20.9061 3.84246 0.813822 
Ar 25.2689 3.54306 4.15546 
Ar 23.5765 6.5854 5.15762 
Ar 28.7071 3.84792 3.03084 
Ar 30.4859 7.03633 2.35896 
Ar 32.1065 3.99217 4.31681 
Ar 30.8508 7.65191 5.96285 
Ar 3.07908 6.86438 8.68051 
Ar 5.7182 9.9805 4.56832 
Ar 7.54788 12.315 2.06236 
Ar 10.6078 12.5029 0.102667 
Ar 8.56083 8.64794 1.05924 
Ar 11.7042 13.6876 4.12535 
Ar 13.1915 10.6492 2.23411 
Ar 17.2333 9.98273 4.121 
Ar 15.7042 6.73665 4.58035 
Ar 19.2218 13.2668 3.41881 
Ar 19.5809 9.4316 1.56678 
Ar 24.3503 6.67978 -1.25947 
Ar 24.719 10.3423 2.8315 
Ar 26.5179 12.4254 6.29715 
Ar 27.9184 9.40556 4.02426 
Ar 30.2537 14.45 5.10617 
Ar 31.2674 11.1502 3.82921 
Ar 33.7533 13.8474 4.11353 
Ar -0.173243 17.5909 5.57334 
Ar 2.08207 20.2757 5.41839 
Ar 4.38912 13.386 2.49885 
Ar 7.18829 17.9133 4.06142 
Ar 9.11482 15.8729 2.04449 
Ar 11.2667 19.3489 2.90926 
Ar 15.2971 13.5036 5.10748 
Ar 13.466 16.6837 4.57358 
Ar 17.1477 16.4829 2.30551 
Ar 19.7465 19.2306 0.714125 
Ar 20.7069 16.3321 4.3687 
Ar 19.9423 19.9159 4.55825 
Ar 22.7369 13.3065 3.77933 
Ar 26.593 20.1572 2.67986 
Ar 25.2121 15.7496 3.62907 
Ar 30.5588 20.9967 4.31597 
Ar 30.9648 15.426 1.474 
Ar 33.7115 21.6414 2.31421 
Ar 2.64085 24.7711 3.49172 
Ar 3.82429 27.6436 4.71773 
Ar 3.92488 23.0669 6.96635 
Ar 5.46421 26.157 8.03719 
Ar 8.17783 21.7424 3.44454 
Ar 11.3915 28.8454 2.12142 
Ar 8.4447 23.8717 7.08121 
Ar 14.7387 26.4306 -0.394859 
Ar 14.846 25.3457 3.062 
Ar 19.6945 29.0587 4.82056 
Ar 19.7162 23.7329 5.06706 
Ar 22.6565 30.2809 2.31167 
Ar 24.359 27.8384 4.26305 
Ar 26.7692 30.2574 5.94208 
Ar 27.9149 23.618 3.60017 
Ar 28.5104 27.171 4.58409 
Ar 29.6766 26.0826 1.08478 
Ar 32.7758 27.7762 4.34356 
Ar 4.95308 9.77376 11.8383 
Ar 8.20652 6.81289 6.95333 
Ar 6.5165 4.19745 5.01759 
Ar 12.0079 6.49377 6.40441 
Ar 9.18382 2.10265 7.64413 
Ar 14.7201 3.59567 7.32565 
Ar 17.9082 2.33904 6.10663 
Ar 16.4786 6.69053 8.0409 
Ar 18.1325 3.38269 9.68748 
Ar 19.8222 7.01876 6.28453 
Ar 22.696 1.16028 6.60101 
Ar 22.3974 7.00537 1.92599 
Ar 25.0624 3.7807 7.91878 
Ar 28.5662 6.24976 10.1756 
Ar 28.4652 4.73055 6.55709 
Ar 31.5502 8.63845 9.99002 
Ar 33.1073 5.28743 8.16987 
Ar 35.0841 10.1636 9.79133 
Ar 6.31795 9.47355 8.22803 
Ar 6.13193 13.8159 5.60715 
Ar 9.73639 9.65344 4.86354 
Ar 8.8754 12.9035 7.64152 
Ar 13.2954 10.333 5.6977 
Ar 12.4065 13.8269 7.54928 
Ar 17.4876 11.6494 7.95393 
Ar 16.9118 15.12 9.46759 
Ar 20.4346 10.596 5.25059 
Ar 19.9395 14.3499 7.42606 
Ar 23.382 14.0412 7.60036 
Ar 26.0446 16.6035 7.83588 
Ar 26.2125 8.43988 7.21616 
Ar 28.084 17.37 4.82955 
Ar 28.9357 10.6669 7.98405 
Ar 32.577 16.6617 9.25695 
Ar 32.4625 11.9447 7.3976 
Ar 35.9547 11.4778 6.10471 
Ar 3.3472 16.7353 3.72628 
Ar 5.10118 19.2197 7.47091 
Ar 6.90343 16.2999 8.16743 
Ar 8.82239 19.6229 7.88782 
Ar 10.5147 17.1229 5.90134 
Ar 12.1342 22.9276 2.17986 
Ar 14.458 17.9045 8.56802 
Ar 16.0015 19.727 5.11804 
Ar 16.5833 16.5105 6.24133 
Ar 20.3213 24.1175 10.1327 
Ar 21.9179 21.0106 8.9013 
Ar 22.9366 23.1312 6.10656 
Ar 23.34 19.1606 6.19197 
Ar 27.4693 21.0828 6.60516 
Ar 29.0732 18.4948 8.26533 
Ar 31.3726 24.5165 4.22193 
Ar 35.9298 20.0778 10.4728 
Ar 33.6735 24.1476 7.07244 
Ar 3.67344 27.2581 11.6646 
Ar 5.72888 29.483 9.50172 
Ar 8.46217 26.7117 9.99083 
Ar 9.28272 31.4043 3.98734 
Ar 12.0643 21.7896 5.98146 
Ar 11.9917 30.1007 5.53995 
Ar 12.9663 25.8967 6.32277 
Ar 16.0614 28.0136 6.06499 
Ar 16.6941 24.5205 7.7213 
Ar 18.9353 27.2991 9.72992 
Ar 21.8112 26.5464 6.95889 
Ar 24.9867 29.0131 9.07402 
Ar 25.8052 25.2375 6.88304 
Ar 28.4304 27.668 8.95911 
Ar 31.4728 26.6525 7.1621 
Ar 30.4517 30.0288 5.94263 
Ar 35.1664 27.9627 8.07448 
Ar 36.0249 32.4196 9.56005 
