216
#
Ar -0.589568 1.2078 -2.07616 
Ar 1.11712 1.06925 1.50238 
Ar -0.520761 -2.2109 -0.492949 
Ar 4.62174 2.13733 2.17629 
Ar 7.17108 -1.04831 2.58853 
Ar 8.34256 1.64047 -0.403137 
Ar 8.62653 -1.1921 -4.97154 
Ar 11.4843 2.9494 0.904695 
Ar 12.4867 -0.136008 -1.577 
Ar 18.1537 2.4606 2.1738 
Ar 15.9967 0.611135 -0.608229 
Ar 21.3194 4.2149 -3.04676 
Ar 21.7126 1.19551 -1.3545 
Ar 25.0831 3.48736 0.241147 
Ar 26.6218 0.490226 1.45261 
Ar 28.8041 2.24558 -1.25061 
Ar 30.2908 0.0980811 2.14421 
Ar 31.257 4.07189 0.133309 
Ar 2.49447 8.11577 5.77923 
Ar 1.62497 9.44625 2.07735 
Ar 1.22571 5.70383 1.68556 
Ar 5.05071 13.2851 -1.8725 
Ar 6.55585 4.29474 -2.02026 
Ar 10.0924 9.80042 -2.29395 
Ar 10.1547 5.32878 -1.82002 
Ar 14.3903 11.7175 -1.29632 
Ar 13.2192 7.23184 -1.23929 
Ar 16.3064 8.15772 1.4026 
Ar 20.1 7.43323 -0.855106 
Ar 22.1416 12.2911 -0.219398 
Ar 22.2738 9.27514 -2.44379 
Ar 25.1933 13.4403 0.484278 
Ar 26.4752 7.0571 2.5615 
Ar 28.2976 13.8362 -1.65853 
Ar 27.286 10.3493 -0.288576 
Ar 31.0563 12.0961 0.0219296 
Ar 0.925419 14.2707 0.293946 
Ar 1.03178 17.4915 2.05759 
Ar 2.29498 15.967 -2.79266 
Ar 4.44912 19.2923 2.02434 
Ar 4.76043 16.3301 0.268534 
Ar 7.59339 18.9828 0.344939 
Ar 13.1338 15.7335 1.17314 
Ar 10.5204 16.6326 -1.51259 
Ar 17.1249 12.4644 0.81081 
Ar 14.5471 19.8585 1.50823 
Ar 20.2961 15.38 0.710927 
Ar 19.7568 17.7355 -2.52978 
Ar 23.2561 17.2083 -2.19786 
Ar 23.2128 18.5661 1.59017 
Ar 27.3953 16.5453 0.931665 
Ar 26.0522 19.7016 -1.25528 
Ar 28.3618 13.2627 2.61997 
Ar 30.336 19.4324 1.49566 
Ar -0.394417 20.9095 -2.86905 
Ar -1.14638 23.5372 -0.758253 
Ar 2.78512 23.6722 -0.565114 
Ar 5.99041 25.2343 4.2053 
Ar 7.53161 22.8477 -0.751209 
Ar 9.95749 25.407 3.1203 
Ar 11.4096 20.1223 -0.915107 
Ar 10.8034 24.6991 -1.47049 
Ar 14.1314 22.9918 -1.95021 
Ar 18.5467 22.4573 2.0495 
Ar 17.2307 20.4551 -2.16386 
Ar 18.4489 26.0581 1.91955 
Ar 22.6622 25.2667 3.0407 
Ar 22.4002 26.9795 -0.0254445 
Ar 24.63 23.4149 -1.42344 
Ar 26.0126 25.9048 0.970886 
Ar 28.2391 22.6479 -0.31588 
Ar 28.9065 24.0449 -3.65736 
Ar 1.15769 1.08305 5.67569 
Ar 2.97383 4.59875 4.64677 
Ar 4.96948 1.87425 6.91921 
Ar 5.01232 6.79777 1.96174 
Ar 8.28039 5.21739 1.68972 
Ar 12.1675 6.70271 2.10084 
Ar 13.5291 3.16007 4.41617 
Ar 15.2388 4.46941 1.03834 
Ar 15.8996 -0.566794 3.20435 
Ar 18.337 6.02186 3.09357 
Ar 21.0507 3.78535 4.37774 
Ar 21.4639 4.04777 0.955478 
Ar 24.7727 3.62212 4.07038 
Ar 23.264 6.78233 5.90502 
Ar 28.7298 3.29123 2.61977 
Ar 30.8598 7.18649 2.66655 
Ar 31.9956 3.93123 4.42842 
Ar 30.0196 7.55256 6.81574 
Ar 4.19284 6.72773 9.73521 
Ar 5.42375 9.83494 3.94626 
Ar 8.39912 12.2016 2.25595 
Ar 10.9718 12.9391 -0.295546 
Ar 8.27783 8.65551 0.833133 
Ar 11.4122 13.3886 4.20048 
Ar 12.8477 10.4292 2.44798 
Ar 16.6632 10.0739 4.49885 
Ar 15.2325 6.49919 4.73672 
Ar 18.7522 13.2388 4.03092 
Ar 19.4127 10.0927 1.95764 
Ar 24.3736 6.81038 -0.874363 
Ar 24.7221 10.2596 2.03064 
Ar 26.6557 13.2828 5.5681 
Ar 27.8724 9.92622 4.18702 
Ar 30.5589 14.2792 5.50136 
Ar 31.4209 11.008 3.89965 
Ar 34.3582 13.241 4.37198 
Ar -0.827082 17.3907 5.08869 
Ar 2.06452 20.565 5.66685 
Ar 4.46821 13.0595 2.29898 
Ar 6.47679 17.9837 4.69196 
Ar 9.37042 16.1478 1.93991 
Ar 11.2226 19.7299 3.20696 
Ar 15.2331 13.6341 4.83086 
Ar 14.1865 17.6388 4.48293 
Ar 17.1645 16.6019 2.16208 
Ar 19.6452 19.1866 0.812636 
Ar 20.8839 16.7259 4.24254 
Ar 20.3964 20.2685 4.56368 
Ar 22.3026 12.6829 3.30492 
Ar 26.4828 19.5584 2.54245 
Ar 24.7206 15.9077 3.75523 
Ar 30.2534 20.5314 4.87398 
Ar 30.8639 15.5357 1.64679 
Ar 33.2654 20.9691 2.41587 
Ar 1.86113 24.2924 2.78689 
Ar 3.6774 27.9088 4.48892 
Ar 5.02539 22.6649 7.82441 
Ar 4.92751 26.0903 8.74752 
Ar 8.15807 21.6305 3.76434 
Ar 11.5574 28.2796 1.7753 
Ar 8.09507 24.4695 6.91936 
Ar 14.7726 26.2107 -0.127524 
Ar 14.6947 24.7073 3.53688 
Ar 20.0525 28.2335 4.21534 
Ar 19.1977 24.755 5.44534 
Ar 22.4815 30.2026 2.52667 
Ar 24.745 27.8833 4.06609 
Ar 26.7092 29.9971 5.98808 
Ar 27.0625 22.9758 3.6014 
Ar 28.4695 26.6661 4.77569 
Ar 29.6105 25.8513 1.49601 
Ar 32.7894 27.0799 3.12625 
Ar 4.43548 10.3349 11.18 
Ar 8.21232 6.66857 6.5928 
Ar 6.73213 4.14649 4.39457 
Ar 11.721 6.56373 5.8858 
Ar 9.05308 2.21567 6.67167 
Ar 14.7681 3.30821 8.13474 
Ar 18.1327 2.46451 6.16717 
Ar 16.7528 6.70092 9.10624 
Ar 18.2385 3.55194 9.84466 
Ar 19.3648 6.88241 6.29078 
Ar 22.7643 1.00326 6.07707 
Ar 22.3907 7.69457 2.07834 
Ar 25.1098 3.50521 7.8916 
Ar 28.1265 6.35055 10.2248 
Ar 28.7587 4.0475 6.53036 
Ar 31.7866 7.50889 10.2492 
Ar 33.1587 4.96057 7.77312 
Ar 34.2342 9.86552 9.48809 
Ar 6.22353 9.60905 8.24163 
Ar 5.52745 13.6779 5.65747 
Ar 8.8779 9.81172 4.99752 
Ar 9.0291 13.038 6.62074 
Ar 13.7784 9.78126 6.75597 
Ar 13.0122 14.3131 7.60511 
Ar 17.5685 11.4598 7.79302 
Ar 16.109 15.2601 9.35172 
Ar 20.8887 10.2778 5.44797 
Ar 20.0103 14.3331 7.14679 
Ar 23.6295 13.2953 7.89658 
Ar 26.2135 16.3582 7.13437 
Ar 26.1007 8.88599 6.77545 
Ar 28.5575 17.1894 4.37738 
Ar 29.862 10.9878 7.31574 
Ar 32.2127 17.2937 9.45649 
Ar 33.036 13.5154 8.18059 
Ar 36.1263 11.3638 6.89145 
Ar 3.46948 16.3002 4.42078 
Ar 5.02212 19.0896 7.66136 
Ar 7.14891 15.9194 7.92698 
Ar 8.83642 19.4552 7.67536 
Ar 10.0053 16.3515 5.63046 
Ar 12.3221 22.93 1.08722 
Ar 13.8146 19.099 7.89126 
Ar 16.5454 21.0805 5.09356 
Ar 17.6212 16.7887 5.81531 
Ar 20.1078 24.223 10.2566 
Ar 22.2625 20.5991 9.47108 
Ar 23.8915 23.2731 6.05402 
Ar 23.7142 19.6331 5.97045 
Ar 26.912 20.3963 6.30608 
Ar 28.9645 17.9326 9.22248 
Ar 31.5296 23.7166 4.05772 
Ar 35.5984 19.7412 9.99423 
Ar 33.8196 24.446 7.34692 
Ar 3.13404 27.4255 11.9377 
Ar 5.22205 29.483 9.86673 
Ar 8.23226 27.4581 10.4282 
Ar 9.18453 31.0215 3.1616 
Ar 11.7802 21.6011 6.41291 
Ar 12.408 29.062 5.91607 
Ar 12.9541 25.6069 6.36858 
Ar 16.1583 28.1654 6.67807 
Ar 16.9763 25.0377 8.26341 
Ar 19.0472 27.9256 9.0049 
Ar 22.1017 26.6969 7.05363 
Ar 24.9746 29.159 9.11612 
Ar 25.4843 26.1851 7.40486 
Ar 28.327 27.6751 8.8451 
Ar 31.6826 27.2353 7.3573 
Ar 30.3883 30.2996 5.6871 
Ar 35.0395 27.7583 8.17088 
Ar 35.6698 31.9737 9.86549 
