216
#
Ar 0.369261 0.1892 -1.26387 
Ar 1.51225 2.67516 1.20241 
Ar 3.11263 -1.6299 -0.37611 
Ar 5.24261 2.17409 0.767179 
Ar 7.3987 -1.52936 1.0151 
Ar 9.06503 1.59545 -1.04532 
Ar 10.3148 -1.79394 -2.10974 
Ar 13.4065 4.91392 -1.36121 
Ar 13.4747 1.45887 -1.28685 
Ar 17.4324 4.23789 -0.362088 
Ar 16.9466 0.504347 -0.323623 
Ar 21.5423 5.37008 -0.225267 
Ar 20.889 1.26033 0.0968952 
Ar 24.357 3.25867 0.174435 
Ar 26.4364 0.17189 1.30633 
Ar 27.8797 4.08294 -0.0592612 
Ar 30.1565 0.575617 1.26415 
Ar 31.5584 4.7384 -0.243423 
Ar 0.695154 6.55455 2.17535 
Ar 1.45451 11.0813 1.15142 
Ar 3.9248 5.18512 2.22608 
Ar 5.01865 11.5817 0.952856 
Ar 6.89362 4.32342 -1.90131 
Ar 7.20159 8.59439 -1.64327 
Ar 9.80732 6.12456 -0.564238 
Ar 10.528 12.0978 0.238565 
Ar 12.8044 8.92896 0.037416 
Ar 16.1311 11.0158 1.17851 
Ar 18.9723 7.83679 -0.198363 
Ar 19.3886 11.4722 -0.473231 
Ar 22.3899 8.73755 -0.602007 
Ar 22.7698 12.0154 -1.56506 
Ar 25.1461 6.88088 0.614267 
Ar 27.1324 12.6413 -1.84435 
Ar 27.5818 9.65 0.567537 
Ar 31.0309 11.5699 -1.12343 
Ar 0.324254 14.0048 -0.470258 
Ar 0.34047 17.7082 0.77069 
Ar 3.02706 15.7469 -1.89536 
Ar 4.71827 18.2951 0.729679 
Ar 6.36408 15.0696 0.778134 
Ar 8.57759 18.3979 0.215464 
Ar 10.197 15.2582 1.95653 
Ar 12.0417 18.3318 0.171123 
Ar 14.7727 14.2564 1.38629 
Ar 15.7036 18.701 -1.34291 
Ar 19.0519 15.2251 -0.243393 
Ar 19.9539 18.5341 -1.29401 
Ar 22.7472 15.5358 -0.522153 
Ar 23.1744 18.6042 1.67866 
Ar 28.3645 16.4791 -0.983666 
Ar 25.947 20.0686 0.0852567 
Ar 29.0484 13.2425 1.33526 
Ar 29.4118 19.5493 0.881688 
Ar -1.56326 21.6925 -1.43975 
Ar 0.7039 24.5704 -0.724894 
Ar 2.41533 21.3068 -0.402492 
Ar 4.51309 23.6777 1.78836 
Ar 7.44689 22.0854 0.241877 
Ar 9.71958 24.7975 1.45115 
Ar 11.1657 21.8386 1.28089 
Ar 13.8073 25.2478 1.50875 
Ar 14.3436 22.2262 -1.51056 
Ar 16.5871 26.066 -0.0244942 
Ar 17.9902 22.1176 -0.297167 
Ar 20.4785 27.4702 -1.57017 
Ar 21.2493 22.0213 1.32482 
Ar 22.4219 26.2833 1.79744 
Ar 23.5736 22.8038 -1.72258 
Ar 25.7555 25.6818 0.460462 
Ar 28.1137 22.9889 1.46671 
Ar 29.8574 25.1362 -0.908244 
Ar 2.2278 0.641158 5.14815 
Ar 3.7126 3.73998 5.37049 
Ar 5.80209 0.744769 3.75943 
Ar 7.94603 5.09554 2.52509 
Ar 10.0093 1.87514 2.80629 
Ar 11.3089 5.91668 2.95722 
Ar 13.9877 3.36236 1.89756 
Ar 15.2579 6.76234 1.56923 
Ar 16.8729 1.98559 3.80232 
Ar 18.6809 5.64583 2.79245 
Ar 20.3669 1.83907 3.62656 
Ar 23.394 5.51237 3.30299 
Ar 24.772 2.60805 4.42922 
Ar 27.1202 5.39425 4.98831 
Ar 28.1775 2.15971 4.25251 
Ar 29.4332 6.09014 2.19319 
Ar 32.0793 3.3709 3.50472 
Ar 31.0966 6.94805 6.24385 
Ar 2.0199 7.75332 5.76574 
Ar 3.45237 11.0734 4.38584 
Ar 5.70058 8.28434 3.06058 
Ar 7.71767 12.5177 3.008 
Ar 9.67894 9.29417 3.12597 
Ar 10.4134 12.9598 4.80025 
Ar 13.1722 10.271 3.44466 
Ar 15.3384 12.5817 5.16663 
Ar 15.8296 8.80238 5.374 
Ar 18.7971 12.6089 3.18016 
Ar 20.5415 8.94854 2.95304 
Ar 22.3323 12.4606 2.41336 
Ar 24.3386 8.62204 4.35563 
Ar 25.6834 12.6017 3.67706 
Ar 27.912 9.10133 4.25743 
Ar 29.7127 12.2826 5.07411 
Ar 31.118 10.0097 2.58905 
Ar 32.2846 13.724 3.01949 
Ar 0.786571 17.4531 4.1537 
Ar 3.43934 20.4208 3.53917 
Ar 2.90204 14.4618 1.90124 
Ar 7.3499 19.9421 2.98469 
Ar 8.36579 16.6347 4.90167 
Ar 11.3401 19.1642 3.75992 
Ar 12.7709 15.4581 5.20982 
Ar 14.798 20.8124 2.01213 
Ar 16.0431 16.9034 3.3974 
Ar 18.2279 20.7775 3.23839 
Ar 19.9144 17.2202 2.77275 
Ar 22.4003 19.9287 5.18625 
Ar 23.212 15.7863 4.23953 
Ar 24.3521 23.227 2.68137 
Ar 26.6218 16.2294 2.65203 
Ar 28.2819 19.6382 4.28967 
Ar 29.9322 16.551 2.70678 
Ar 32.4339 21.5799 1.8879 
Ar 1.79846 24.2156 4.02945 
Ar 3.79803 27.1183 3.73772 
Ar 5.74445 22.5264 5.30219 
Ar 7.09464 25.6762 3.92053 
Ar 9.22167 22.9348 4.69704 
Ar 11.273 28.2828 1.46204 
Ar 12.0258 25.7859 4.44649 
Ar 15.3528 28.1696 2.9501 
Ar 16.15 24.1021 3.90296 
Ar 18.8581 27.8046 1.9212 
Ar 19.5401 24.4573 3.83218 
Ar 23.2011 28.6161 4.26285 
Ar 25.8999 26.2848 4.06647 
Ar 26.057 29.1294 6.25736 
Ar 28.2281 23.8282 4.97654 
Ar 29.0068 27.7214 4.05369 
Ar 31.3826 24.8554 2.35695 
Ar 33.45 27.8564 2.84556 
Ar 3.37118 4.83166 8.88035 
Ar 5.33749 7.43894 6.6451 
Ar 7.44827 3.00045 5.91122 
Ar 9.21342 7.02769 5.99561 
Ar 10.5981 4.22542 7.68632 
Ar 13.0501 6.88592 6.71499 
Ar 15.957 4.26095 6.582 
Ar 16.0815 7.51834 9.01265 
Ar 19.1335 2.41197 6.95831 
Ar 19.5923 7.62477 7.2492 
Ar 22.638 2.09972 8.13892 
Ar 22.8484 5.61565 6.78904 
Ar 26.0428 3.51059 7.8486 
Ar 26.901 6.91347 8.38858 
Ar 29.8872 3.5442 7.10843 
Ar 31.6103 8.30135 10.1632 
Ar 33.5279 3.95954 7.38202 
Ar 36.0214 7.96748 10.3136 
Ar 4.21951 10.681 8.25522 
Ar 5.55669 13.9591 5.62987 
Ar 7.54385 10.5193 5.92151 
Ar 9.6702 14.0961 8.54584 
Ar 11.2922 10.0978 6.94679 
Ar 13.3342 15.4779 8.78285 
Ar 14.4743 12.0266 8.88247 
Ar 17.2397 15.2062 7.23426 
Ar 17.5878 11.1864 7.38563 
Ar 21.0773 15.3351 7.0735 
Ar 21.2577 11.7965 5.94107 
Ar 24.6273 14.4914 7.60841 
Ar 25.083 10.1903 7.64452 
Ar 27.8123 15.2369 6.16742 
Ar 28.8588 9.50122 7.66621 
Ar 31.4787 15.8172 6.44544 
Ar 33.1813 10.8801 5.54105 
Ar 35.0146 14.6823 5.60326 
Ar 4.71406 17.321 4.74439 
Ar 5.50274 20.4854 8.52581 
Ar 6.7925 16.5788 8.48783 
Ar 8.82667 21.0781 7.83479 
Ar 11.0434 17.6809 7.30391 
Ar 12.8186 22.1538 5.79909 
Ar 14.651 18.2601 6.15957 
Ar 16.9341 21.7372 6.98709 
Ar 18.8428 18.4951 6.47177 
Ar 20.2682 22.0376 7.16924 
Ar 23.3533 18.9904 8.80984 
Ar 25.0821 22.4623 6.07579 
Ar 25.4342 18.126 6.17962 
Ar 28.0774 21.3662 8.33735 
Ar 30.1064 18.7153 7.77814 
Ar 31.5528 21.4047 5.60309 
Ar 34.268 18.6783 7.9596 
Ar 35.1125 22.1899 7.04271 
Ar 3.93514 24.2242 9.15106 
Ar 6.80492 28.3686 7.33895 
Ar 7.84626 24.6673 8.52994 
Ar 9.0871 28.283 4.63016 
Ar 11.3217 23.5767 8.73627 
Ar 13.0803 30.4459 5.723 
Ar 15.0596 26.2966 8.07265 
Ar 16.3785 29.3772 7.15085 
Ar 18.4506 24.7844 7.62482 
Ar 20.3105 27.914 5.94971 
Ar 22.7215 25.042 6.55303 
Ar 24.3398 27.9761 8.96266 
Ar 26.7842 25.3897 7.79909 
Ar 28.9462 28.6474 8.64673 
Ar 30.9587 25.8811 6.40604 
Ar 31.6993 29.7663 5.96102 
Ar 34.3148 26.8645 6.7869 
Ar 37.451 30.7954 8.22671 
