216
#
Ar 0.509393 -0.272504 -2.25313 
Ar 2.04607 2.6516 1.2878 
Ar 4.19964 -1.41637 -0.0362802 
Ar 5.47998 2.29624 0.165293 
Ar 7.64971 -0.406704 1.4063 
Ar 10.1045 1.90528 -1.2686 
Ar 11.6206 -1.59011 -2.80627 
Ar 12.5243 4.85379 -0.404222 
Ar 13.6636 0.926912 -0.858587 
Ar 17.1012 3.9352 -0.08223 
Ar 17.5015 0.441393 0.0961225 
Ar 21.21 4.59872 -0.935258 
Ar 21.1189 1.10541 0.279129 
Ar 24.171 2.79915 1.43233 
Ar 26.8245 0.121534 0.598877 
Ar 28.1919 3.81152 0.251755 
Ar 30.4417 0.208925 0.311965 
Ar 32.0263 3.31423 -0.592972 
Ar 0.396714 5.77192 1.30491 
Ar 1.70536 11.7521 0.834396 
Ar 4.36617 5.72558 1.50269 
Ar 4.89569 10.5028 0.470106 
Ar 7.25839 4.95309 -0.967767 
Ar 8.0472 10.6318 -0.938579 
Ar 9.56914 7.20631 0.00168206 
Ar 11.3417 11.8093 0.942243 
Ar 12.9552 8.49878 -0.306706 
Ar 15.8016 10.1619 0.503609 
Ar 18.6009 7.22252 0.325792 
Ar 19.2362 11.4336 0.0314012 
Ar 22.8355 9.05976 -0.500686 
Ar 22.3154 12.5564 -1.79206 
Ar 25.4579 6.73019 0.901044 
Ar 27.2428 12.4723 -1.65561 
Ar 28.4489 9.30293 0.41845 
Ar 31.1939 12.1503 -1.2723 
Ar -0.251416 15.319 -0.852797 
Ar 0.831534 18.3602 0.473923 
Ar 3.55019 15.4361 -2.09095 
Ar 4.42489 18.4371 0.230145 
Ar 7.25488 15.1854 0.1285 
Ar 8.90939 18.6247 0.428005 
Ar 10.4405 15.7748 2.26856 
Ar 12.7006 18.9867 0.216836 
Ar 15.0933 13.5133 0.63157 
Ar 16.1671 18.3919 -0.780477 
Ar 18.4429 14.7789 -0.442067 
Ar 19.9622 19.1053 -0.59095 
Ar 22.5915 16.1886 -0.0475719 
Ar 23.0818 19.4998 1.73347 
Ar 27.231 16.025 -0.481255 
Ar 26.2867 19.7327 -0.731996 
Ar 29.5432 14.083 1.298 
Ar 29.5593 18.8597 0.737184 
Ar -1.19674 21.7527 -1.45347 
Ar 1.08385 25.2696 0.500025 
Ar 2.35856 21.5919 -0.47659 
Ar 4.61462 24.2063 0.865911 
Ar 7.4687 22.0247 0.377829 
Ar 8.90569 25.9389 -0.00601151 
Ar 10.8901 21.6839 1.41129 
Ar 13.075 24.9483 1.50567 
Ar 14.4306 21.8157 -0.876739 
Ar 16.5142 26.1969 -0.0680667 
Ar 17.7749 22.375 -0.0546225 
Ar 20.0566 26.416 -1.12431 
Ar 21.1888 22.3404 0.854439 
Ar 22.7507 25.4054 1.24137 
Ar 24.3822 22.8472 -1.10746 
Ar 26.3155 25.6185 -0.182823 
Ar 28.5222 22.3825 1.17591 
Ar 30.0951 25.531 -0.31751 
Ar 2.1601 1.01835 4.52165 
Ar 3.78821 4.20661 4.77701 
Ar 5.66271 0.342462 4.13192 
Ar 7.52439 5.40252 3.43127 
Ar 9.51086 2.03589 3.05018 
Ar 11.7645 6.17625 2.75297 
Ar 13.0265 2.44588 2.37843 
Ar 15.297 6.07154 2.11419 
Ar 16.864 1.7359 3.91816 
Ar 18.3327 5.30872 3.30853 
Ar 20.4613 2.02622 4.00837 
Ar 22.1672 5.83425 3.11413 
Ar 24.1121 2.51122 4.85933 
Ar 26.208 5.27382 4.24702 
Ar 28.5258 1.88985 3.67602 
Ar 29.7108 6.25071 2.6376 
Ar 32.1402 3.60434 3.8961 
Ar 31.3445 7.19473 5.65784 
Ar 2.15844 7.60854 4.04311 
Ar 3.57841 11.2664 4.12465 
Ar 5.33963 8.24504 3.63907 
Ar 7.38874 12.1328 2.81863 
Ar 9.59575 9.03967 3.58026 
Ar 10.9411 12.4835 4.53426 
Ar 13.3528 9.3974 3.50065 
Ar 14.9834 13.0703 4.33421 
Ar 17.6108 8.89638 3.58109 
Ar 18.582 12.6768 3.53884 
Ar 21.0131 9.27563 2.80155 
Ar 22.3547 12.9873 2.25028 
Ar 24.2714 10.0077 3.54903 
Ar 26.4305 13.6231 3.56682 
Ar 27.61 9.69675 4.21434 
Ar 29.7197 12.2399 5.33607 
Ar 31.3521 10.4697 2.62114 
Ar 32.8832 13.8728 3.36817 
Ar 0.922905 17.3721 3.66917 
Ar 3.22999 20.2682 3.08469 
Ar 3.83171 14.5221 2.07832 
Ar 6.52826 19.8243 3.68622 
Ar 7.73439 16.4631 4.87038 
Ar 10.8075 19.0962 3.80267 
Ar 12.7182 15.9644 4.96301 
Ar 14.5962 20.693 3.07072 
Ar 16.6035 16.8785 2.33046 
Ar 18.2886 21.0576 3.74649 
Ar 20.4188 16.0385 3.19704 
Ar 22.3567 19.7677 5.19521 
Ar 23.9403 15.8477 4.79642 
Ar 24.9843 22.2185 2.52281 
Ar 26.4241 17.7858 2.98997 
Ar 28.8805 20.2127 4.04891 
Ar 30.453 16.9912 3.73978 
Ar 31.8746 21.0045 2.51576 
Ar 1.56538 23.3779 3.77848 
Ar 3.16762 27.0302 3.57791 
Ar 4.88768 23.6863 5.12711 
Ar 7.07766 26.1188 3.37466 
Ar 8.92853 22.6568 4.18677 
Ar 11.0816 28.6478 1.4737 
Ar 11.3171 25.455 5.0761 
Ar 14.9726 27.9982 2.74747 
Ar 15.7876 24.4804 4.25278 
Ar 19.3325 27.4437 2.58466 
Ar 20.751 23.5156 4.59968 
Ar 22.4149 28.1925 4.51805 
Ar 25.585 26.0683 3.65293 
Ar 26.3516 28.935 5.788 
Ar 27.985 23.7701 4.74865 
Ar 28.8283 27.3594 3.00964 
Ar 31.2205 24.7386 3.21691 
Ar 33.0728 27.9739 2.26186 
Ar 3.1253 4.20722 9.27041 
Ar 4.93787 7.20946 7.60437 
Ar 7.33188 3.22171 6.70315 
Ar 8.90525 6.68725 6.62739 
Ar 11.4759 4.01514 6.78626 
Ar 12.582 7.17711 6.2675 
Ar 15.5261 4.50555 7.62189 
Ar 15.7085 8.43667 7.85661 
Ar 19.2376 3.26444 7.59249 
Ar 19.4039 7.83936 6.96995 
Ar 22.6748 2.0846 8.02082 
Ar 23.5136 6.09403 7.44303 
Ar 26.1503 3.40967 8.18107 
Ar 27.4539 6.84115 7.7555 
Ar 29.8041 4.3167 7.37984 
Ar 31.1733 7.21434 9.50244 
Ar 33.3906 3.14595 7.01292 
Ar 35.334 7.78495 9.81972 
Ar 3.95305 10.8253 8.10935 
Ar 5.69932 13.9332 6.42728 
Ar 7.2208 10.8555 6.12386 
Ar 9.46781 14.3417 7.59359 
Ar 10.4716 9.9096 7.28097 
Ar 13.5242 15.8263 8.76764 
Ar 13.6669 11.8603 8.41005 
Ar 16.9456 14.7692 6.97618 
Ar 17.7177 11.3355 7.42919 
Ar 20.9174 15.4175 7.53427 
Ar 21.3605 10.8237 6.17528 
Ar 24.8503 15.3184 8.3268 
Ar 24.8416 10.4509 7.25818 
Ar 28.2758 15.2038 6.77018 
Ar 29.2222 9.65457 7.70962 
Ar 31.9357 14.5967 6.65266 
Ar 32.9598 10.4272 6.58922 
Ar 35.1729 13.6026 6.12169 
Ar 4.316 17.4715 5.36949 
Ar 5.23197 21.6841 8.42266 
Ar 6.77999 18.3473 7.96542 
Ar 8.90523 20.8628 7.7589 
Ar 10.614 17.547 7.67208 
Ar 13.0273 21.1303 6.84306 
Ar 15.282 18.2026 6.28329 
Ar 16.841 21.7195 6.90515 
Ar 18.7049 18.131 6.13842 
Ar 20.4265 21.6781 7.64065 
Ar 23.046 18.6221 8.39564 
Ar 25.2573 21.8842 5.97044 
Ar 26.4351 18.2979 6.49589 
Ar 28.1227 22.2909 8.38971 
Ar 29.8071 18.3075 7.96063 
Ar 31.4831 22.1329 5.92058 
Ar 33.1145 17.8959 7.1221 
Ar 34.9593 21.1374 6.75518 
Ar 4.21607 25.3847 8.31094 
Ar 7.04628 28.228 8.44628 
Ar 8.05291 24.7329 6.93099 
Ar 9.2256 28.4094 5.12159 
Ar 11.0118 23.8041 8.93668 
Ar 12.6814 29.4943 5.43352 
Ar 14.2517 25.1011 8.1953 
Ar 15.8302 30.2942 7.68957 
Ar 17.6352 25.0734 7.43206 
Ar 19.2785 28.9277 6.22651 
Ar 23.1624 25.2261 6.89193 
Ar 23.7803 28.1113 9.02356 
Ar 26.7136 25.6751 7.23517 
Ar 28.9273 28.0929 8.32386 
Ar 30.9274 25.426 6.97397 
Ar 31.3421 28.9684 5.32913 
Ar 34.1307 26.5233 6.51332 
Ar 37.0049 30.0218 7.62378 
