216
#
Ar -0.690632 1.27434 -2.16714 
Ar 0.986827 1.15073 1.45978 
Ar -0.569302 -2.08349 -0.517631 
Ar 4.6546 2.183 2.1663 
Ar 7.12595 -1.02366 2.55656 
Ar 8.38136 1.67355 -0.534153 
Ar 8.69317 -1.19482 -4.91254 
Ar 11.5125 2.95939 0.888247 
Ar 12.4974 -0.0890084 -1.53956 
Ar 18.1415 2.41904 2.14498 
Ar 15.9555 0.659031 -0.668632 
Ar 21.3721 4.25923 -3.14237 
Ar 21.6936 1.27702 -1.37809 
Ar 25.2395 3.44819 0.275087 
Ar 26.5562 0.497939 1.48128 
Ar 28.7676 2.2123 -1.1793 
Ar 30.366 0.0630891 2.20242 
Ar 31.2701 4.05843 0.162149 
Ar 2.53998 8.14289 5.78891 
Ar 1.66509 9.30078 2.07335 
Ar 1.19647 5.73518 1.72109 
Ar 5.05167 13.3014 -1.82076 
Ar 6.59265 4.26453 -2.02917 
Ar 10.1627 9.77469 -2.3601 
Ar 10.1877 5.371 -1.81685 
Ar 14.2307 11.6664 -1.32579 
Ar 13.2299 7.33979 -1.28858 
Ar 16.2971 8.11439 1.46624 
Ar 20.0736 7.41275 -0.730493 
Ar 22.0678 12.2749 -0.281419 
Ar 22.3542 9.27146 -2.42502 
Ar 25.2849 13.4721 0.516472 
Ar 26.5177 7.13715 2.61537 
Ar 28.2989 13.8224 -1.665 
Ar 27.4448 10.4426 -0.308397 
Ar 31.0912 12.0698 -0.00665549 
Ar 0.854139 14.2223 0.250806 
Ar 1.117 17.54 2.0895 
Ar 2.41324 16.0166 -2.79371 
Ar 4.36263 19.1955 1.95952 
Ar 4.72974 16.3024 0.239703 
Ar 7.67521 18.9532 0.358941 
Ar 13.2573 15.7717 1.17989 
Ar 10.404 16.6523 -1.51955 
Ar 17.1465 12.5894 0.908069 
Ar 14.5083 19.7489 1.46638 
Ar 20.2677 15.3114 0.704242 
Ar 19.7815 17.7224 -2.39992 
Ar 23.3252 17.1344 -2.1953 
Ar 23.2675 18.6272 1.6382 
Ar 27.2551 16.5946 0.973882 
Ar 26.0431 19.5032 -1.32374 
Ar 28.4357 13.3034 2.5139 
Ar 30.2498 19.3579 1.51341 
Ar -0.362349 20.8912 -2.79425 
Ar -1.06452 23.5495 -0.698067 
Ar 2.81943 23.6182 -0.56253 
Ar 5.8763 25.2009 4.20587 
Ar 7.55419 22.8391 -0.660216 
Ar 9.92003 25.4243 3.14924 
Ar 11.3639 20.0693 -0.917618 
Ar 10.6096 24.7174 -1.50742 
Ar 14.179 23.0112 -1.97663 
Ar 18.5691 22.4785 1.99919 
Ar 17.1922 20.5306 -2.25405 
Ar 18.4706 26.103 1.82656 
Ar 22.6598 25.2429 3.06443 
Ar 22.4508 26.9844 -0.04541 
Ar 24.6269 23.4431 -1.51309 
Ar 25.9348 25.8286 0.944099 
Ar 28.1217 22.5399 -0.20072 
Ar 28.9163 24.0534 -3.78512 
Ar 1.17108 1.01422 5.59271 
Ar 3.03363 4.59905 4.68037 
Ar 4.93628 1.93151 6.95195 
Ar 4.9279 6.76119 1.98192 
Ar 8.24131 5.21298 1.59251 
Ar 12.2008 6.60637 2.1108 
Ar 13.5912 3.06215 4.4334 
Ar 15.2668 4.53246 0.955324 
Ar 15.8999 -0.655393 3.28778 
Ar 18.3025 5.99119 3.10428 
Ar 21.1182 3.81654 4.38494 
Ar 21.4988 4.03421 0.931261 
Ar 24.7015 3.62877 4.03943 
Ar 23.2053 6.78779 6.02542 
Ar 28.627 3.27574 2.56719 
Ar 30.8689 7.18165 2.72628 
Ar 31.9703 4.02758 4.37293 
Ar 29.9631 7.4522 6.93598 
Ar 4.20549 6.69883 9.81409 
Ar 5.37857 9.85807 3.91723 
Ar 8.51268 12.27 2.34326 
Ar 11.056 13.0506 -0.337464 
Ar 8.22705 8.64051 0.826684 
Ar 11.4503 13.2684 4.09433 
Ar 12.827 10.473 2.47527 
Ar 16.6449 9.94539 4.49971 
Ar 15.1411 6.49565 4.78486 
Ar 18.7065 13.2936 4.14613 
Ar 19.4406 10.158 2.08637 
Ar 24.3951 6.84643 -0.905846 
Ar 24.7683 10.2989 2.02132 
Ar 26.6257 13.2754 5.56458 
Ar 27.8103 9.9365 4.13374 
Ar 30.5659 14.1924 5.56101 
Ar 31.4618 11.0162 3.95066 
Ar 34.3719 13.2463 4.39131 
Ar -0.797195 17.3043 5.07912 
Ar 2.04474 20.5351 5.66373 
Ar 4.48664 13.0937 2.28687 
Ar 6.55035 17.9676 4.6174 
Ar 9.37215 16.1525 1.88389 
Ar 11.2196 19.6481 3.21931 
Ar 15.1903 13.7304 4.80069 
Ar 14.2387 17.753 4.48162 
Ar 17.1378 16.603 2.03215 
Ar 19.5523 19.1934 0.863761 
Ar 21.0252 16.8177 4.19911 
Ar 20.4197 20.3006 4.58525 
Ar 22.2751 12.6944 3.30741 
Ar 26.4602 19.5381 2.52899 
Ar 24.6729 15.9471 3.7472 
Ar 30.1456 20.5452 4.91046 
Ar 30.8925 15.4862 1.73051 
Ar 33.3406 21.0381 2.39844 
Ar 1.79635 24.1608 2.87785 
Ar 3.60645 27.9989 4.48512 
Ar 5.16586 22.6689 7.85015 
Ar 5.04662 26.0836 8.84231 
Ar 8.12661 21.6152 3.80926 
Ar 11.5864 28.2316 1.70849 
Ar 8.15984 24.5985 6.78442 
Ar 14.7524 26.1462 -0.0846296 
Ar 14.7539 24.6595 3.58857 
Ar 20.0548 28.1361 4.18905 
Ar 19.2108 24.843 5.43886 
Ar 22.4223 30.2166 2.41772 
Ar 24.8007 27.8515 3.99698 
Ar 26.7495 29.9694 6.04531 
Ar 26.9441 22.9517 3.62435 
Ar 28.4755 26.6552 4.70076 
Ar 29.7322 25.9074 1.5215 
Ar 32.7684 27.0924 3.16869 
Ar 4.32836 10.2326 11.0963 
Ar 8.16895 6.72225 6.55715 
Ar 6.60167 4.12922 4.38858 
Ar 11.7168 6.60512 5.84756 
Ar 9.04007 2.23113 6.6115 
Ar 14.6929 3.28018 8.23365 
Ar 18.1226 2.43745 6.20931 
Ar 16.7477 6.72574 9.16795 
Ar 18.3178 3.62127 9.86575 
Ar 19.3234 6.90729 6.28085 
Ar 22.8183 0.911997 6.13855 
Ar 22.3156 7.66506 2.15999 
Ar 25.1199 3.52428 7.8268 
Ar 28.0715 6.32809 10.2038 
Ar 28.7579 3.97961 6.51565 
Ar 31.7866 7.39542 10.2323 
Ar 33.1917 4.91637 7.69273 
Ar 34.1361 9.81361 9.55601 
Ar 6.27611 9.66591 8.09408 
Ar 5.55756 13.6961 5.65613 
Ar 8.848 9.83901 4.97298 
Ar 9.00944 13.0398 6.61435 
Ar 13.7868 9.71085 6.88256 
Ar 13.0328 14.4123 7.55965 
Ar 17.5928 11.3672 7.7151 
Ar 16.0343 15.2923 9.36816 
Ar 20.8516 10.2259 5.39193 
Ar 20.0576 14.3259 7.15545 
Ar 23.6964 13.1841 7.87246 
Ar 26.2939 16.4474 7.14954 
Ar 26.068 8.90235 6.77587 
Ar 28.7333 17.1499 4.32355 
Ar 29.9195 11.0735 7.26227 
Ar 32.2164 17.3855 9.51693 
Ar 33.0685 13.6906 8.15378 
Ar 36.1613 11.3681 6.93266 
Ar 3.4135 16.2642 4.54832 
Ar 4.98658 18.9582 7.80496 
Ar 7.19582 15.9415 7.96151 
Ar 8.84534 19.4958 7.57251 
Ar 10.0251 16.3308 5.66136 
Ar 12.4045 22.8753 1.06872 
Ar 13.8105 19.1698 7.76651 
Ar 16.5961 21.2106 5.11563 
Ar 17.5886 16.8224 5.78606 
Ar 20.0557 24.2202 10.2615 
Ar 22.285 20.4508 9.4961 
Ar 23.9816 23.3258 6.04733 
Ar 23.7126 19.523 5.91384 
Ar 26.8602 20.3556 6.30953 
Ar 28.8368 17.8943 9.22472 
Ar 31.589 23.657 4.09848 
Ar 35.4715 19.7026 9.95228 
Ar 33.8699 24.4324 7.16312 
Ar 3.08473 27.3431 11.968 
Ar 5.15411 29.5103 9.88231 
Ar 8.21123 27.4944 10.4183 
Ar 9.21578 30.9721 3.16076 
Ar 11.721 21.6286 6.48558 
Ar 12.4399 29.1309 5.87978 
Ar 13.0063 25.4133 6.37221 
Ar 16.1596 28.2222 6.81565 
Ar 16.9349 25.0159 8.40131 
Ar 19.0277 28.0942 8.92415 
Ar 22.0728 26.7453 7.07321 
Ar 24.9512 29.2356 9.13287 
Ar 25.4833 26.196 7.53101 
Ar 28.3734 27.7063 8.9191 
Ar 31.6497 27.357 7.23177 
Ar 30.4505 30.3275 5.67949 
Ar 35.03 27.7705 8.22164 
Ar 35.6724 32.0031 9.83971 
