216
#
Ar -1.27195 1.31877 -2.31491 
Ar 1.34701 0.885793 2.32441 
Ar 1.77719 -0.483974 -1.00071 
Ar 4.78635 1.88124 1.58828 
Ar 6.84118 -0.926527 2.75248 
Ar 8.66769 1.44858 0.397424 
Ar 8.13123 0.329918 -3.91633 
Ar 12.6102 3.32745 -1.33871 
Ar 12.5818 -0.878137 -2.02967 
Ar 18.6393 1.86179 1.589 
Ar 14.8004 0.975778 0.0522494 
Ar 21.5059 3.75757 -3.20399 
Ar 21.653 0.789984 -0.532659 
Ar 24.5918 1.95776 1.23838 
Ar 27.5335 -0.0936143 1.87608 
Ar 28.3524 2.93186 -0.539015 
Ar 31.2589 -0.126404 0.89921 
Ar 32.5908 3.51794 0.19882 
Ar 0.795 7.75384 4.74059 
Ar 1.79113 10.0591 1.64654 
Ar 2.62869 6.01289 1.30911 
Ar 5.73112 12.8796 -0.365671 
Ar 6.0679 3.83596 -1.74809 
Ar 9.04221 9.32961 -1.98124 
Ar 9.40723 5.3318 -2.11786 
Ar 12.4753 11.1183 -0.617774 
Ar 12.2977 7.55068 -0.255406 
Ar 17.2668 9.86801 1.52536 
Ar 19.8642 6.58435 0.173676 
Ar 20.3763 11.6103 -0.969771 
Ar 22.2199 8.7825 -3.38253 
Ar 23.6464 11.6938 1.73092 
Ar 26.7004 6.51483 2.36035 
Ar 28.1657 13.5842 -3.3185 
Ar 28.3271 9.3053 0.454337 
Ar 31.7082 12.4431 -0.752919 
Ar 1.98336 13.3436 -0.663126 
Ar 0.551144 18.0914 1.18495 
Ar 2.46252 16.9868 -1.79304 
Ar 3.9837 18.8905 2.39956 
Ar 6.41571 16.2337 1.62928 
Ar 7.87458 20.0284 0.926112 
Ar 11.9753 15.1539 0.694709 
Ar 11.3162 18.2601 -1.15647 
Ar 15.0118 13.2651 1.81781 
Ar 16.1011 19.3402 -1.10231 
Ar 18.6112 14.0898 1.19435 
Ar 19.3669 17.843 -1.31472 
Ar 21.8822 15.5712 0.386755 
Ar 22.369 19.9434 -0.0219888 
Ar 28.757 15.7637 -0.335304 
Ar 26.5491 19.006 -0.555943 
Ar 27.4687 12.6874 1.86925 
Ar 30.4603 19.1592 -1.05675 
Ar -1.7682 22.6089 -1.7604 
Ar 0.858503 24.873 0.422217 
Ar 2.88406 21.8235 0.760864 
Ar 5.84007 24.9028 2.45777 
Ar 8.53697 23.4525 -0.316692 
Ar 9.16373 25.5479 2.49466 
Ar 11.2916 21.5919 1.33381 
Ar 11.8836 24.9963 -1.45009 
Ar 14.6846 22.7354 -1.95098 
Ar 17.5724 23.2996 0.343548 
Ar 18.7915 21.2493 -2.72057 
Ar 18.4341 28.1165 -0.412041 
Ar 21.558 24.1253 1.71882 
Ar 21.6549 26.6163 -1.36729 
Ar 25.0332 23.09 -1.02395 
Ar 27.0798 25.7405 0.516574 
Ar 28.0543 22.0239 0.814476 
Ar 29.632 25.8922 -2.02829 
Ar 1.27641 1.22817 6.04077 
Ar 3.80271 4.62528 5.41604 
Ar 4.8969 1.11382 5.34638 
Ar 6.16335 4.78798 1.97007 
Ar 9.51001 4.54609 2.82946 
Ar 13.2498 6.46419 3.2036 
Ar 12.5482 2.49503 2.52239 
Ar 15.9846 5.03094 0.689156 
Ar 16.2953 0.441816 3.75395 
Ar 18.5283 6.97393 3.45931 
Ar 19.7992 2.71732 4.80236 
Ar 21.6147 4.0188 1.31257 
Ar 24.14 3.42382 4.88149 
Ar 26.4671 6.50683 6.75363 
Ar 27.5685 3.05708 3.39161 
Ar 30.7062 6.18173 1.34551 
Ar 31.528 3.26738 3.52973 
Ar 30.0131 6.5066 5.08561 
Ar 2.96723 6.28105 8.64446 
Ar 3.26067 10.5742 4.99677 
Ar 5.96836 9.95325 2.49897 
Ar 9.2978 13.0045 1.52052 
Ar 8.92785 8.62563 1.66434 
Ar 11.1286 13.8471 4.81531 
Ar 12.9 10.6984 3.04726 
Ar 16.2397 11.5594 4.89271 
Ar 15.8163 7.86145 6.11574 
Ar 17.5404 14.8601 4.40926 
Ar 20.7808 9.7966 2.46979 
Ar 23.868 7.98333 0.557651 
Ar 24.1931 9.1349 4.24691 
Ar 25.6669 12.4671 5.15562 
Ar 27.5839 9.18804 4.99996 
Ar 30.0223 12.3842 4.8177 
Ar 31.27 10.0387 2.31876 
Ar 32.735 13.48 2.90273 
Ar -0.573622 15.9638 5.61564 
Ar -0.171947 19.5723 4.77118 
Ar 3.79687 13.866 3.38378 
Ar 6.93834 18.6306 4.75276 
Ar 9.70938 16.9921 2.56796 
Ar 10.879 19.9133 4.17013 
Ar 14.161 15.7443 4.18909 
Ar 14.7251 21.3339 1.39938 
Ar 16.4926 17.8065 2.50778 
Ar 18.6148 21.0129 3.1009 
Ar 20.7797 16.9324 3.06152 
Ar 21.8098 20.2953 4.15503 
Ar 21.862 13.6002 4.05707 
Ar 24.7829 21.7775 2.51898 
Ar 25.2279 15.2743 1.0783 
Ar 27.5333 19.891 3.98469 
Ar 30.1181 17.2845 2.97295 
Ar 32.4352 21.429 1.70943 
Ar 1.54539 24.0098 3.81608 
Ar 3.4621 27.3795 2.77815 
Ar 4.57105 20.9706 6.37458 
Ar 6.76608 26.1293 6.23949 
Ar 7.62544 21.945 3.95145 
Ar 11.9761 28.2554 1.59561 
Ar 10.2565 26.6249 5.97757 
Ar 15.475 26.7004 0.596121 
Ar 16.7033 25.535 3.86885 
Ar 19.4543 27.9798 3.35913 
Ar 20.3258 23.5771 5.13318 
Ar 22.9405 28.8263 3.45428 
Ar 24.8268 25.5216 3.2714 
Ar 26.0045 29.557 5.77646 
Ar 27.3791 23.4926 4.76022 
Ar 28.625 26.7659 4.4632 
Ar 30.2394 25.1429 1.89389 
Ar 32.7901 27.094 3.27928 
Ar 5.48331 8.37552 10.0684 
Ar 5.9846 7.42088 6.67638 
Ar 7.60872 3.99573 5.504 
Ar 10.0363 7.0691 5.59967 
Ar 10.8573 3.16819 6.66121 
Ar 12.983 6.00117 7.44842 
Ar 14.5537 2.521 6.29555 
Ar 16.2221 9.10929 9.25521 
Ar 18.1979 3.16569 9.34056 
Ar 18.6598 6.43439 7.80013 
Ar 22.7051 0.351573 6.98794 
Ar 22.054 6.22714 4.83894 
Ar 25.3038 2.88487 8.17188 
Ar 29.5457 6.31917 8.86686 
Ar 29.1772 3.31662 7.01887 
Ar 32.7007 7.72532 9.64809 
Ar 32.7512 4.29735 7.66391 
Ar 35.5884 10.0664 9.03925 
Ar 5.99899 10.8146 7.35398 
Ar 7.35203 14.8171 5.17879 
Ar 9.0754 10.7388 4.99043 
Ar 9.20169 12.9175 8.01347 
Ar 12.3313 9.86904 7.1888 
Ar 12.7146 13.8773 8.13612 
Ar 16.3013 12.6554 9.56499 
Ar 16.5321 16.2628 8.15581 
Ar 19.9054 10.8209 5.95561 
Ar 19.9128 14.7126 7.375 
Ar 23.3441 12.6245 7.89428 
Ar 25.684 16.1784 8.01441 
Ar 26.2171 10.433 8.00182 
Ar 27.3984 15.8136 4.46325 
Ar 30.3397 10.1215 7.58143 
Ar 31.8549 15.8073 9.29424 
Ar 33.3499 12.8424 6.95404 
Ar 37.4119 14.1912 7.17605 
Ar 3.14481 17.5514 5.54306 
Ar 4.88095 19.2174 9.6106 
Ar 7.41361 15.7718 9.18315 
Ar 8.7821 20.3149 8.14561 
Ar 10.2163 16.6805 6.83246 
Ar 12.9066 24.9368 2.4548 
Ar 14.3641 18.5741 6.56492 
Ar 15.9292 22.014 5.43699 
Ar 19.5066 18.2011 6.04626 
Ar 21.5888 22.9372 9.16753 
Ar 22.952 19.2072 7.48219 
Ar 24.5004 22.0704 6.37149 
Ar 24.2927 17.7286 4.54712 
Ar 27.8841 21.6668 8.01734 
Ar 29.0149 17.6364 7.02934 
Ar 30.8121 22.5274 4.6915 
Ar 33.3547 19.8424 8.12479 
Ar 34.8121 23.0402 7.55419 
Ar 4.58473 25.5133 10.2789 
Ar 5.3204 29.5996 9.48703 
Ar 8.61979 27.2366 10.2358 
Ar 9.6952 30.0108 3.78635 
Ar 12.017 22.2627 6.92268 
Ar 13.1344 28.3565 5.22488 
Ar 14.4936 25.3903 6.57347 
Ar 16.0506 28.2163 7.82992 
Ar 17.8161 25.0879 7.95878 
Ar 19.5296 27.9468 7.00274 
Ar 22.8748 26.1804 6.29373 
Ar 24.923 28.931 9.80825 
Ar 26.323 26.2559 7.92269 
Ar 28.3687 29.2406 8.28919 
Ar 32.3143 25.5553 6.41761 
Ar 30.5488 29.4599 5.30078 
Ar 35.8296 26.7534 6.71215 
Ar 35.5782 32.1981 9.84604 
