216
#
Ar -0.16775 0.370404 -2.25052 
Ar 1.1586 1.49428 0.781612 
Ar 3.16543 -1.18456 -0.0635558 
Ar 5.82718 3.00821 0.690996 
Ar 6.45589 -1.67335 1.02639 
Ar 8.95526 0.595716 -0.0714968 
Ar 9.93998 -0.924317 -3.3474 
Ar 13.5955 4.29277 -1.2766 
Ar 13.3111 0.580038 -1.64843 
Ar 17.4208 5.0111 -0.563978 
Ar 16.9593 1.35181 -0.623925 
Ar 21.5957 5.07731 -0.898496 
Ar 20.3688 1.91787 -0.270904 
Ar 23.5502 2.56566 0.991416 
Ar 26.2993 0.28553 2.6526 
Ar 27.7174 2.95404 0.454476 
Ar 30.3657 0.6106 1.81431 
Ar 31.5054 3.83789 -0.759308 
Ar 0.0488311 7.51586 3.98239 
Ar 0.930989 10.8942 2.17494 
Ar 3.15018 6.19468 2.80433 
Ar 4.87286 12.3741 0.919472 
Ar 7.52691 3.79626 -2.55204 
Ar 6.91224 8.38092 -1.58611 
Ar 10.1839 4.81982 -0.624699 
Ar 11.0635 11.6162 -0.37775 
Ar 12.9356 8.21504 -0.408555 
Ar 16.7053 11.4139 1.528 
Ar 18.8012 8.26477 1.12539 
Ar 19.8568 11.5946 -0.823257 
Ar 22.7058 8.72281 -1.27051 
Ar 23.4587 12.37 -1.6087 
Ar 25.924 5.65321 1.96716 
Ar 27.0243 13.2253 -2.30977 
Ar 27.2432 10.0541 -0.203274 
Ar 30.5929 12.3248 -1.58215 
Ar 0.834858 13.216 -0.992989 
Ar 1.07752 17.6973 0.69201 
Ar 4.32621 15.5585 -1.32485 
Ar 4.55047 19.0162 2.19574 
Ar 6.61753 15.5421 1.37863 
Ar 8.93266 18.1124 -0.0169809 
Ar 10.7378 15.296 1.32298 
Ar 13.0055 17.8499 0.471245 
Ar 13.7436 13.7764 1.19237 
Ar 16.1848 18.0053 -1.19081 
Ar 18.0109 14.5487 0.531773 
Ar 19.9307 18.7097 0.279645 
Ar 21.5001 15.2959 -0.0718783 
Ar 23.097 18.1334 1.96356 
Ar 29.203 15.9043 -0.752139 
Ar 25.8571 19.6594 -0.471149 
Ar 28.8957 12.8835 1.91881 
Ar 29.6195 19.5695 -0.256514 
Ar -1.70664 22.3873 -2.11349 
Ar 0.64842 24.6185 -0.347124 
Ar 2.63612 21.1059 -0.112963 
Ar 5.31271 23.9985 2.55417 
Ar 6.89789 21.8775 -0.244826 
Ar 9.12121 24.625 1.78379 
Ar 10.9743 21.0234 -0.0565576 
Ar 12.522 24.9449 0.448183 
Ar 14.4976 22.5032 -1.3879 
Ar 18.376 24.5177 0.0113725 
Ar 17.8493 21.2537 -1.114 
Ar 20.651 27.3566 -1.85686 
Ar 21.8934 21.7611 -0.122158 
Ar 22.8722 25.3617 0.835042 
Ar 24.6956 23.4644 -1.41569 
Ar 26.8367 25.9007 0.473285 
Ar 27.7973 22.2694 1.15251 
Ar 30.5457 26.5508 -1.12291 
Ar 2.28594 1.28514 4.49886 
Ar 3.87762 4.23447 6.15422 
Ar 5.93048 0.47392 3.71099 
Ar 7.23025 6.28756 2.56628 
Ar 11.0234 3.49717 2.74664 
Ar 12.3402 6.6671 3.68483 
Ar 14.5943 2.99397 1.87516 
Ar 15.8698 6.68005 2.17033 
Ar 17.5584 1.29026 3.70212 
Ar 18.5853 5.28231 4.36369 
Ar 20.9513 2.28178 3.62949 
Ar 21.6095 6.63085 2.35258 
Ar 24.7726 3.01913 4.62586 
Ar 26.3955 6.03106 5.9284 
Ar 28.5407 3.08386 4.30609 
Ar 29.842 6.21913 1.24895 
Ar 32.4534 4.14051 3.32045 
Ar 29.7486 6.04721 5.10857 
Ar 1.90266 7.33609 7.32374 
Ar 3.52421 10.8135 4.79675 
Ar 5.99452 9.37627 2.05176 
Ar 8.71727 12.4622 2.26828 
Ar 9.45443 9.02419 1.61881 
Ar 10.58 12.7972 5.10707 
Ar 13.0843 10.4346 3.26539 
Ar 14.8714 13.0683 4.84301 
Ar 15.7834 8.97012 4.5809 
Ar 18.3142 14.3137 3.90185 
Ar 19.5037 8.85164 4.52909 
Ar 23.1172 10.6246 1.72391 
Ar 23.5763 8.50437 4.87781 
Ar 25.4856 11.9962 4.91167 
Ar 27.8059 9.41412 3.8431 
Ar 28.8995 12.7055 5.67065 
Ar 30.4639 9.54038 1.62756 
Ar 32.0772 14.1003 2.89043 
Ar 0.915351 17.197 4.33912 
Ar 2.1191 20.7937 3.9333 
Ar 3.20415 14.8522 2.97457 
Ar 7.18019 19.092 4.41314 
Ar 8.66752 16.0032 4.395 
Ar 11.5479 18.9438 3.72581 
Ar 12.7387 15.9292 4.61145 
Ar 14.1983 21.2919 1.99456 
Ar 16.4352 17.6891 3.53701 
Ar 18.2677 21.0117 2.35721 
Ar 20.5257 17.6063 4.14968 
Ar 21.2924 21.2024 4.70971 
Ar 22.6381 13.8206 3.01508 
Ar 24.2607 22.1097 2.40903 
Ar 25.5603 15.5838 2.89372 
Ar 28.4847 19.7059 3.69282 
Ar 30.8085 17.3586 2.47955 
Ar 32.3663 21.3903 1.40408 
Ar 1.11534 24.3552 3.24098 
Ar 3.38303 27.3349 3.5269 
Ar 5.43233 21.8924 6.26255 
Ar 7.09302 24.8384 5.64553 
Ar 9.35674 22.4642 4.2865 
Ar 12.0432 28.5661 1.3133 
Ar 10.4157 25.9403 5.22733 
Ar 15.4527 27.103 2.57067 
Ar 16.5757 23.8299 3.22411 
Ar 19.6692 27.9071 1.71806 
Ar 20.4812 24.2314 3.74898 
Ar 22.7925 28.5892 3.52595 
Ar 25.3267 25.4328 3.63619 
Ar 25.6723 28.8592 6.44222 
Ar 28.1293 23.4853 4.90821 
Ar 28.5968 27.3003 4.90675 
Ar 30.2783 25.0485 2.78299 
Ar 32.7884 27.1904 1.81244 
Ar 4.1755 5.81386 10.0049 
Ar 5.38904 7.81673 5.44004 
Ar 7.77539 3.47412 4.64067 
Ar 9.48658 6.47147 6.03401 
Ar 11.1449 3.48424 6.86913 
Ar 13.1413 7.00231 7.07876 
Ar 15.4307 4.20935 6.56072 
Ar 16.1482 8.34431 8.67341 
Ar 19.2951 3.05438 7.06772 
Ar 19.1191 6.89545 7.76665 
Ar 22.1147 1.12204 7.65396 
Ar 22.8053 5.427 6.76996 
Ar 25.7423 3.18246 8.6875 
Ar 27.8994 6.55704 9.34169 
Ar 29.2333 3.36822 7.78291 
Ar 31.9396 7.74174 10.1243 
Ar 33.3577 3.63497 7.05677 
Ar 36.0539 9.29745 10.4456 
Ar 5.38899 11.2848 7.90885 
Ar 6.13003 13.6 5.3906 
Ar 8.371 9.91356 5.9607 
Ar 9.23815 13.7307 8.61006 
Ar 11.4443 10.2284 7.52972 
Ar 13.1629 14.9759 8.39594 
Ar 14.6829 11.7988 9.29427 
Ar 17.2891 15.1155 7.35559 
Ar 18.1314 11.5973 6.48597 
Ar 21.1036 15.9705 7.17575 
Ar 21.9457 11.4812 5.8045 
Ar 24.2439 15.0789 6.22459 
Ar 25.7438 9.11548 7.35729 
Ar 27.7493 16.7081 5.58268 
Ar 29.4731 9.44468 7.7303 
Ar 31.9995 14.6155 6.68055 
Ar 32.4713 10.9287 6.40502 
Ar 35.8512 13.5902 7.01045 
Ar 4.17195 17.3775 5.87385 
Ar 5.38091 19.3667 8.9952 
Ar 7.05523 16.4373 7.49977 
Ar 9.09674 20.2712 7.89386 
Ar 10.7181 17.0885 7.3629 
Ar 12.939 23.1125 5.0329 
Ar 13.5259 19.1683 7.64529 
Ar 16.6814 21.6093 6.27258 
Ar 18.9872 19.2555 7.11985 
Ar 20.8391 22.9247 7.7627 
Ar 22.4854 19.2476 8.39859 
Ar 24.6855 22.0709 6.08862 
Ar 24.0545 19.0379 5.35086 
Ar 27.7873 21.8363 8.07469 
Ar 30.5664 18.7259 6.95923 
Ar 31.915 21.2994 5.14841 
Ar 34.1725 19.164 7.85093 
Ar 34.9446 23.105 7.45611 
Ar 4.5539 24.9998 9.5 
Ar 6.08098 27.8017 7.11862 
Ar 8.40429 25.0801 9.48779 
Ar 9.47174 29.3034 3.98345 
Ar 10.9433 23.4022 7.88421 
Ar 13.8097 30.2953 4.80408 
Ar 14.322 25.9286 7.8515 
Ar 16.0751 29.0323 7.16666 
Ar 18.0747 25.2537 6.59915 
Ar 19.7221 28.7019 5.73008 
Ar 22.9806 25.7875 6.79359 
Ar 24.2181 28.5198 10.525 
Ar 27.2758 25.8283 7.96309 
Ar 28.3616 29.566 9.18978 
Ar 32.1994 25.723 6.68776 
Ar 31.7621 29.8395 5.50151 
Ar 35.0468 27.5075 7.26036 
Ar 36.2279 31.0216 8.87305 
