216
#
Ar -0.0858294 0.0196424 -0.0291322 
Ar 1.94319 3.5797 0.0780842 
Ar 3.55032 0.0204821 -0.101718 
Ar 5.48982 3.43094 -0.0119346 
Ar 7.40833 -0.0895973 0.0932983 
Ar 9.09089 3.64983 0.0851267 
Ar 11.1215 -0.0701331 -0.0459655 
Ar 12.7384 3.7109 0.0481597 
Ar 14.6777 -0.125925 0.158549 
Ar 16.6292 3.76349 -0.0210414 
Ar 18.3316 -0.149261 0.0925268 
Ar 20.1284 3.78335 0.0668972 
Ar 21.9902 -0.0087395 0.0172766 
Ar 23.8425 3.69649 0.128054 
Ar 25.6927 0.0676398 0.0315083 
Ar 27.5349 3.65439 -0.119989 
Ar 29.3745 0.103762 -0.0379204 
Ar 31.2333 3.63684 -0.127184 
Ar 0.025108 7.29228 0.105408 
Ar 1.73495 11.0355 -0.0690554 
Ar 3.55608 7.27814 0.0408005 
Ar 5.44683 10.9545 -0.0621644 
Ar 7.31522 7.21939 -0.0445158 
Ar 9.17662 11.0622 -0.0200493 
Ar 11.0108 7.43713 0.0814732 
Ar 12.8798 11.0642 0.00699741 
Ar 14.6755 7.37568 -0.0123844 
Ar 16.3997 10.9321 -0.0390666 
Ar 18.3535 7.31805 0.0216644 
Ar 20.233 10.9627 -0.0475736 
Ar 22.0081 7.56045 -0.157156 
Ar 23.9776 11.1166 -0.0742339 
Ar 25.7145 7.27519 -0.0866296 
Ar 27.5065 11.078 -0.0203491 
Ar 29.3069 7.50528 0.0148292 
Ar 31.2084 11.0459 0.0214619 
Ar 0.0172008 14.6799 -0.108512 
Ar 1.76977 18.3288 -0.11238 
Ar 3.62803 14.685 -0.0552964 
Ar 5.50937 18.3969 0.0155803 
Ar 7.38005 14.7531 -0.0550475 
Ar 9.25568 18.2364 -0.0403749 
Ar 10.9908 14.6545 0.0251585 
Ar 12.9033 18.232 0.0573439 
Ar 14.8248 14.5093 0.00753836 
Ar 16.4242 18.2999 0.0107271 
Ar 18.2615 14.6941 -0.012974 
Ar 20.22 18.235 0.124601 
Ar 21.9954 14.8688 -0.0593612 
Ar 23.7392 18.2559 0.0854534 
Ar 25.7126 14.6606 -0.00148161 
Ar 27.3457 18.3267 -0.0882494 
Ar 29.4241 14.5417 0.0965643 
Ar 31.2241 18.2943 0.0941101 
Ar 0.0391726 22.0041 -0.0731632 
Ar 1.94736 25.6758 -0.0205857 
Ar 3.6104 21.9071 -0.0618439 
Ar 5.54595 25.6601 0.0610292 
Ar 7.34176 22.0668 0.00286797 
Ar 9.12035 25.5935 -0.0332337 
Ar 11.0548 21.9122 -0.0385127 
Ar 12.7332 25.6239 0.122417 
Ar 14.6983 21.9141 -0.14802 
Ar 16.4578 25.7585 -0.0856679 
Ar 18.1828 22.1444 0.0197318 
Ar 20.0871 25.5444 -0.141568 
Ar 22.0029 21.9841 -0.08463 
Ar 23.8006 25.6978 0.0806748 
Ar 25.676 22.0643 0.0364164 
Ar 27.5227 25.695 -0.0196804 
Ar 29.3247 22.0627 0.0227124 
Ar 31.2207 25.6697 0.053982 
Ar 1.83621 1.76836 3.69464 
Ar 3.54446 5.38825 3.70082 
Ar 5.48272 1.78521 3.67836 
Ar 7.33333 5.5402 3.70643 
Ar 9.16844 1.85736 3.6427 
Ar 10.9529 5.49304 3.5773 
Ar 12.9715 1.92401 3.70781 
Ar 14.7636 5.56083 3.55549 
Ar 16.5096 1.80705 3.67017 
Ar 18.3803 5.50118 3.6114 
Ar 20.2025 1.79521 3.6513 
Ar 22.0232 5.65509 3.7484 
Ar 23.8798 1.8344 3.73962 
Ar 25.7366 5.51477 3.78186 
Ar 27.4671 1.75365 3.6133 
Ar 29.4244 5.50681 3.59805 
Ar 31.326 1.82627 3.67349 
Ar 32.9417 5.58077 3.7043 
Ar 1.9984 9.17644 3.80553 
Ar 3.55798 12.8335 3.68093 
Ar 5.45104 9.11124 3.77806 
Ar 7.34098 12.8636 3.73031 
Ar 9.14001 9.1686 3.84198 
Ar 11.1571 12.9148 3.63442 
Ar 12.8018 9.18867 3.62707 
Ar 14.7561 12.86 3.6742 
Ar 16.5133 9.41508 3.74064 
Ar 18.3529 12.854 3.76698 
Ar 20.1557 9.19096 3.6368 
Ar 22.0353 12.8592 3.62374 
Ar 23.8617 9.08894 3.65045 
Ar 25.7524 12.8434 3.84733 
Ar 27.5101 9.02957 3.65051 
Ar 29.258 12.822 3.75367 
Ar 31.1852 9.27517 3.63239 
Ar 32.9954 12.9598 3.62044 
Ar 1.72603 16.3617 3.75996 
Ar 3.70486 20.1482 3.58207 
Ar 5.46448 16.5235 3.62751 
Ar 7.22288 20.2636 3.80632 
Ar 9.10311 16.5176 3.5371 
Ar 11.0352 20.0481 3.71707 
Ar 12.7577 16.524 3.8948 
Ar 14.6319 20.2602 3.66233 
Ar 16.4318 16.3815 3.7228 
Ar 18.3582 20.0973 3.62646 
Ar 20.1025 16.5601 3.6572 
Ar 22.0187 20.0632 3.76628 
Ar 23.8194 16.4776 3.5608 
Ar 25.7504 20.2588 3.61481 
Ar 27.4758 16.5762 3.581 
Ar 29.3957 20.0289 3.7756 
Ar 31.1279 16.5052 3.78573 
Ar 33.0029 20.2612 3.54412 
Ar 1.77646 23.8563 3.52252 
Ar 3.56145 27.4762 3.63285 
Ar 5.35136 23.8569 3.64738 
Ar 7.39698 27.5049 3.63174 
Ar 9.05778 23.7942 3.61535 
Ar 11.149 27.5292 3.61447 
Ar 12.6969 23.8586 3.70598 
Ar 14.6464 27.512 3.65994 
Ar 16.733 23.7657 3.54218 
Ar 18.3663 27.5958 3.52091 
Ar 19.9784 23.8347 3.77824 
Ar 22.0366 27.5796 3.73706 
Ar 23.8484 23.9147 3.70835 
Ar 25.6541 27.5798 3.75775 
Ar 27.5799 23.7861 3.66769 
Ar 29.4725 27.4594 3.62019 
Ar 31.3025 23.9061 3.54019 
Ar 32.9029 27.5033 3.61113 
Ar 3.81974 3.69152 7.36334 
Ar 5.54233 7.42054 7.36632 
Ar 7.30178 3.63342 7.30646 
Ar 9.02858 7.22185 7.24201 
Ar 10.8639 3.62378 7.26703 
Ar 12.7518 7.23672 7.12727 
Ar 14.6179 3.61153 7.28642 
Ar 16.5516 7.47164 7.31107 
Ar 18.4677 3.65885 7.39159 
Ar 20.2344 7.27598 7.21256 
Ar 22.0857 3.69541 7.37961 
Ar 23.8898 7.32624 7.57003 
Ar 25.6418 3.67232 7.34182 
Ar 27.5152 7.41654 7.36743 
Ar 29.2589 3.72073 7.15473 
Ar 31.2485 7.2882 7.41317 
Ar 32.9476 3.66341 7.38819 
Ar 34.8136 7.30482 7.37914 
Ar 3.54878 11.0415 7.37087 
Ar 5.60901 14.751 7.28954 
Ar 7.2752 11.0109 7.31202 
Ar 9.27088 14.6115 7.36559 
Ar 11.1627 10.9526 7.26888 
Ar 12.8515 14.79 7.38543 
Ar 14.659 11.031 7.18683 
Ar 16.5489 14.6944 7.20339 
Ar 18.3016 11.1778 7.34754 
Ar 20.186 14.7545 7.23704 
Ar 21.9896 11.0293 7.37605 
Ar 23.9185 14.7689 7.34968 
Ar 25.6162 10.9209 7.161 
Ar 27.4119 14.8211 7.29909 
Ar 29.2454 10.9342 7.27879 
Ar 31.1109 14.6517 7.27865 
Ar 32.9706 11.074 7.23649 
Ar 34.7709 14.6631 7.35269 
Ar 3.69014 18.3283 7.39955 
Ar 5.63696 22.0082 7.26057 
Ar 7.32865 18.2997 7.47873 
Ar 9.21098 21.8753 7.36764 
Ar 11.0488 18.3215 7.39116 
Ar 12.8507 21.9773 7.33043 
Ar 14.6844 18.362 7.34496 
Ar 16.5407 21.9132 7.46796 
Ar 18.3389 18.2582 7.32436 
Ar 20.1971 22.0572 7.44732 
Ar 21.9052 18.2731 7.32694 
Ar 23.9221 22.0183 7.29162 
Ar 25.7968 18.2263 7.25528 
Ar 27.5731 22.1146 7.363 
Ar 29.2465 18.3317 7.37252 
Ar 31.1139 22.1482 7.29444 
Ar 33.0222 18.3862 7.3524 
Ar 34.8296 21.8609 7.40736 
Ar 3.6868 25.8673 7.3794 
Ar 5.5813 29.3133 7.41463 
Ar 7.43726 25.6574 7.30818 
Ar 9.12623 29.3082 7.22804 
Ar 11.0158 25.615 7.50941 
Ar 12.8187 29.3707 7.2239 
Ar 14.779 25.6448 7.37313 
Ar 16.5087 29.4899 7.2695 
Ar 18.2863 25.6064 7.3913 
Ar 20.0283 29.2393 7.40211 
Ar 21.8987 25.6172 7.27527 
Ar 23.9231 29.3571 7.45231 
Ar 25.7805 25.675 7.37416 
Ar 27.6338 29.3833 7.41641 
Ar 29.2799 25.6077 7.34573 
Ar 31.067 29.3663 7.28743 
Ar 32.9302 25.6473 7.29979 
Ar 34.9275 29.416 7.5508 
