216
#
Ar -0.732137 0.86587 -2.27095 
Ar 1.31818 1.12197 2.56638 
Ar 1.72551 -1.34552 -0.797727 
Ar 4.55632 1.79465 1.722 
Ar 6.71771 -0.694491 2.98606 
Ar 8.12999 1.6462 0.31556 
Ar 8.51586 0.635103 -3.66439 
Ar 12.4853 2.78584 -1.05152 
Ar 12.2962 -0.553715 -1.85281 
Ar 18.4691 2.05929 1.60857 
Ar 15.3911 0.727205 0.59171 
Ar 21.4271 3.7177 -3.2772 
Ar 21.4111 1.30112 -0.653079 
Ar 24.7305 2.42014 1.58002 
Ar 27.5553 -0.312778 1.49637 
Ar 28.527 2.84006 -0.269994 
Ar 31.0554 0.283556 1.01958 
Ar 32.4609 3.70519 0.324923 
Ar 0.414514 7.92043 4.6404 
Ar 1.91404 9.44035 1.30554 
Ar 2.75346 5.96984 1.34836 
Ar 5.77113 12.8697 -0.566194 
Ar 5.94359 4.17596 -1.63708 
Ar 9.75058 9.87369 -1.96913 
Ar 9.25819 5.44702 -2.14099 
Ar 12.655 11.1913 -0.280789 
Ar 11.9066 7.45595 -0.256405 
Ar 17.203 9.57151 1.50562 
Ar 19.8607 7.26358 -0.142766 
Ar 20.6087 11.2262 -1.28048 
Ar 22.4592 8.54444 -3.37403 
Ar 23.6547 12.0126 1.39766 
Ar 27.1146 6.63933 2.27559 
Ar 28.4476 13.5204 -3.07573 
Ar 28.1619 9.4184 0.299431 
Ar 31.6535 12.2117 -0.462056 
Ar 2.35843 13.5127 -0.467588 
Ar 0.807497 18.1243 0.900309 
Ar 2.22024 16.5088 -2.19156 
Ar 4.62181 19.1086 2.25432 
Ar 6.17141 16.0871 1.39852 
Ar 7.87389 20.1361 0.901718 
Ar 12.366 15.3028 0.469126 
Ar 11.596 18.4947 -0.932906 
Ar 14.8689 13.2861 1.69453 
Ar 15.8655 19.5456 -1.31135 
Ar 18.7975 13.9534 0.901767 
Ar 19.2208 17.9815 -1.10186 
Ar 21.8887 15.3073 -0.218153 
Ar 22.4964 19.8127 0.525148 
Ar 28.2169 16.0872 -0.469839 
Ar 26.4719 19.3609 -0.295994 
Ar 27.4646 12.5724 1.44817 
Ar 30.0952 18.9943 -0.78097 
Ar -1.74121 22.6641 -1.42036 
Ar 0.919016 24.8154 0.196578 
Ar 3.19642 22.0078 0.917842 
Ar 5.82274 24.5542 2.59842 
Ar 8.73087 23.7684 -0.473966 
Ar 9.48655 26.1493 2.54658 
Ar 11.1219 21.5505 0.653669 
Ar 11.7451 25.1023 -1.62397 
Ar 14.9946 23.0056 -1.82903 
Ar 17.769 23.5418 0.583951 
Ar 18.4164 21.4378 -2.96989 
Ar 18.5969 28.0247 -0.0968352 
Ar 21.4519 24.3549 1.7774 
Ar 21.905 26.5688 -1.38759 
Ar 25.0818 22.9074 -0.971613 
Ar 27.0264 25.5195 0.502355 
Ar 28.4217 22.1437 0.952475 
Ar 30.0111 25.806 -2.11591 
Ar 1.3825 0.820418 6.00721 
Ar 3.66522 4.31922 5.94693 
Ar 4.8715 0.886507 5.70656 
Ar 6.1112 5.58936 1.78124 
Ar 9.66752 4.73895 2.49392 
Ar 13.3826 6.34816 2.9924 
Ar 12.6548 2.65685 2.6085 
Ar 16.132 5.00108 0.556909 
Ar 16.4425 -0.0495045 3.75539 
Ar 18.4479 6.7803 3.58505 
Ar 19.3856 2.83405 4.87277 
Ar 21.617 4.11114 1.89186 
Ar 24.1815 3.63362 4.80112 
Ar 26.1315 6.18538 6.76658 
Ar 27.7567 3.06685 3.34916 
Ar 30.6911 6.95718 1.38363 
Ar 31.4417 3.10783 3.80905 
Ar 29.7777 5.86148 4.98615 
Ar 2.95582 6.59395 8.8457 
Ar 3.34072 10.3265 5.02746 
Ar 6.18399 11.0562 2.71882 
Ar 9.21903 12.9336 1.13424 
Ar 8.90132 8.432 1.16151 
Ar 11.1472 13.2701 4.53745 
Ar 12.8727 10.4298 3.22847 
Ar 16.1123 11.0317 4.69157 
Ar 15.7316 7.63406 5.6041 
Ar 17.8795 14.8834 4.83705 
Ar 20.7869 9.69851 2.46772 
Ar 24.0611 7.63567 -0.00797058 
Ar 24.0996 9.38854 4.10691 
Ar 25.7516 12.5258 4.82659 
Ar 28.4799 9.4893 5.24518 
Ar 29.5197 12.7191 4.45603 
Ar 31.3234 10.0854 2.50562 
Ar 33.1892 13.211 2.89989 
Ar -0.890747 15.9771 5.62001 
Ar 0.0187813 19.7856 4.6973 
Ar 4.08509 13.7165 3.73803 
Ar 7.1936 18.4156 4.91748 
Ar 9.57545 16.8374 2.48973 
Ar 10.7965 19.6755 4.4103 
Ar 13.7771 15.5324 4.46045 
Ar 14.6323 21.5324 1.55414 
Ar 17.0163 17.4655 2.23345 
Ar 18.5753 20.6821 3.08925 
Ar 20.1953 17.09 3.18382 
Ar 22.0298 20.4592 4.38198 
Ar 21.5737 13.7713 4.42673 
Ar 24.6555 21.8099 2.41365 
Ar 25.2416 15.3034 1.42956 
Ar 27.446 19.7228 4.3853 
Ar 30.3745 17.2242 2.47852 
Ar 32.1205 21.6414 1.7387 
Ar 2.08569 23.6311 3.78339 
Ar 3.41061 27.2842 2.65332 
Ar 4.6384 21.0821 6.25582 
Ar 6.28653 26.1724 6.0208 
Ar 7.70115 21.9928 4.05204 
Ar 11.9622 28.2647 1.57805 
Ar 10.3117 26.5087 5.96011 
Ar 14.9317 26.2629 -0.00906068 
Ar 16.7689 25.6253 3.97196 
Ar 19.6632 27.4823 3.36285 
Ar 19.9482 23.373 5.24679 
Ar 23.0138 28.9776 3.04976 
Ar 24.7422 25.6764 3.34239 
Ar 26.2369 29.7234 5.53491 
Ar 27.1841 23.1817 4.20404 
Ar 28.4171 26.4553 4.6411 
Ar 30.5754 24.6432 1.63051 
Ar 32.9512 27.0875 3.24434 
Ar 5.54013 8.83829 10.6513 
Ar 5.75651 7.20066 6.78332 
Ar 7.19743 3.8836 5.88408 
Ar 10.1957 7.58816 5.6731 
Ar 11.1742 3.12224 6.00004 
Ar 13.0366 5.99038 7.48551 
Ar 14.8756 2.33245 6.03448 
Ar 15.7612 8.77301 9.28144 
Ar 18.0537 2.87163 9.17417 
Ar 18.5677 6.17427 7.51062 
Ar 22.6925 0.326269 6.92026 
Ar 21.8011 6.50564 4.36841 
Ar 25.2089 2.94872 8.39436 
Ar 29.2664 6.02615 9.10026 
Ar 28.8313 2.98974 6.86792 
Ar 32.6781 8.19167 9.49774 
Ar 32.9643 4.96365 7.70605 
Ar 35.4558 10.2175 8.45885 
Ar 6.36179 10.9482 7.63695 
Ar 7.19292 14.8994 4.98554 
Ar 9.06843 10.7342 5.25747 
Ar 9.16756 13.1151 7.99581 
Ar 12.8163 10.0163 6.78444 
Ar 12.6809 13.9619 8.2525 
Ar 16.5051 12.4376 9.6291 
Ar 16.6981 15.8902 7.98082 
Ar 19.9408 10.9393 6.07306 
Ar 20.1536 14.816 7.41675 
Ar 23.3187 12.6654 7.8417 
Ar 25.5543 16.3443 8.04637 
Ar 26.2911 10.4713 8.29751 
Ar 27.1743 15.6029 4.4692 
Ar 30.516 10.4359 7.80728 
Ar 31.9129 15.7806 9.21118 
Ar 33.4006 12.5736 7.23523 
Ar 37.2766 14.1935 7.28966 
Ar 2.59745 17.4099 5.4152 
Ar 5.15776 19.4088 9.47101 
Ar 7.50395 16.1097 9.05415 
Ar 8.57222 20.3415 8.22489 
Ar 10.2447 16.752 6.92937 
Ar 12.7702 24.7932 3.01746 
Ar 14.5442 18.6866 6.61569 
Ar 16.1746 21.974 5.47644 
Ar 19.625 18.6098 6.37103 
Ar 21.6152 22.8594 9.40957 
Ar 22.6539 19.0886 7.98036 
Ar 24.4475 22.2455 6.1365 
Ar 24.3728 17.7922 4.53095 
Ar 27.9151 21.6972 8.22481 
Ar 29.0731 17.0646 7.20273 
Ar 30.5808 22.81 5.055 
Ar 33.4215 19.4955 8.42714 
Ar 34.5581 22.731 7.74242 
Ar 4.41943 25.6629 10.3831 
Ar 5.00464 29.4771 9.14831 
Ar 7.96384 27.478 10.448 
Ar 9.66285 30.395 3.8585 
Ar 12.2246 21.8067 6.75686 
Ar 12.7779 29.1798 4.82853 
Ar 14.0813 25.106 6.56444 
Ar 15.6628 28.6409 7.98856 
Ar 18.1081 24.8416 7.98951 
Ar 19.1125 28.5614 7.1848 
Ar 22.5425 25.9473 5.99574 
Ar 25.0196 28.9074 9.88358 
Ar 26.2028 25.2001 7.53101 
Ar 28.8633 29.0776 8.53317 
Ar 32.5982 25.423 6.41289 
Ar 30.028 29.6381 4.9425 
Ar 35.9416 26.7849 6.63995 
Ar 35.6949 32.2147 9.61983 
