216
#
Ar -0.425688 1.07644 -1.87682 
Ar 1.26926 0.891884 1.6746 
Ar -0.386956 -2.45027 -0.225014 
Ar 4.58205 2.02936 2.1869 
Ar 7.16897 -1.10934 2.6694 
Ar 8.31057 1.62353 -0.147972 
Ar 8.4878 -1.25911 -5.08384 
Ar 11.5306 2.97372 0.890605 
Ar 12.4568 -0.221834 -1.61518 
Ar 18.1943 2.47944 2.29436 
Ar 16.09 0.49824 -0.476355 
Ar 21.2439 4.19176 -2.85631 
Ar 21.723 0.989375 -1.26326 
Ar 24.7893 3.52993 0.336059 
Ar 26.7375 0.429213 1.41067 
Ar 28.7479 2.21193 -1.43566 
Ar 30.1648 0.161625 1.97726 
Ar 31.3461 4.13758 0.129986 
Ar 2.38581 8.0046 5.74673 
Ar 1.50321 9.72736 2.15466 
Ar 1.29303 5.64366 1.5746 
Ar 5.04239 13.256 -1.87835 
Ar 6.52068 4.3337 -1.99321 
Ar 9.9704 9.83077 -2.18823 
Ar 10.1128 5.20282 -1.75966 
Ar 14.6022 11.7776 -1.24012 
Ar 13.2133 7.04743 -1.19754 
Ar 16.2172 8.31309 1.21666 
Ar 20.0247 7.31714 -0.968669 
Ar 22.05 12.1986 -0.0949391 
Ar 22.294 9.42357 -2.55186 
Ar 25.1786 13.4984 0.453899 
Ar 26.373 6.83883 2.44726 
Ar 28.2887 13.8893 -1.66779 
Ar 27.0584 10.1512 -0.320418 
Ar 30.9744 12.0932 0.101712 
Ar 1.1865 14.354 0.507317 
Ar 0.883973 17.4134 1.92271 
Ar 2.23884 15.9591 -2.82852 
Ar 4.55532 19.5765 2.23115 
Ar 4.8096 16.3348 0.29223 
Ar 7.48081 19.0514 0.279502 
Ar 12.9144 15.6588 1.1718 
Ar 10.7553 16.5719 -1.52695 
Ar 17.1212 12.2924 0.663431 
Ar 14.6515 20.0772 1.56578 
Ar 20.3708 15.5097 0.710212 
Ar 19.7148 17.7915 -2.75746 
Ar 23.12 17.3083 -2.15325 
Ar 23.0841 18.4212 1.48236 
Ar 27.5897 16.3897 0.881565 
Ar 25.9763 20.1116 -1.08515 
Ar 28.2432 13.1582 2.69125 
Ar 30.3818 19.4896 1.36925 
Ar -0.516144 20.8782 -3.02854 
Ar -1.33028 23.5481 -0.772536 
Ar 2.68843 23.7592 -0.577853 
Ar 6.21526 25.2364 4.17258 
Ar 7.53055 22.8441 -0.848211 
Ar 9.99702 25.3324 3.09125 
Ar 11.4335 20.2657 -0.822138 
Ar 11.142 24.7368 -1.47199 
Ar 14.0573 22.8971 -1.93814 
Ar 18.4744 22.3921 2.17202 
Ar 17.3007 20.3271 -1.96932 
Ar 18.364 26.0026 2.07205 
Ar 22.6083 25.2404 3.03205 
Ar 22.3191 27.0256 -0.0325 
Ar 24.6465 23.368 -1.20571 
Ar 26.1205 26.0783 1.01777 
Ar 28.4338 22.8294 -0.467635 
Ar 28.9058 24.0344 -3.4557 
Ar 1.15008 1.22867 5.81636 
Ar 2.86311 4.55798 4.61863 
Ar 5.00266 1.76255 6.72192 
Ar 5.17554 6.856 2.05966 
Ar 8.49423 5.21548 1.70416 
Ar 12.0804 6.86032 2.13494 
Ar 13.3935 3.34676 4.36989 
Ar 15.1638 4.3585 1.19649 
Ar 15.8863 -0.386751 2.97828 
Ar 18.5045 6.02287 3.00059 
Ar 20.9218 3.75765 4.41357 
Ar 21.3798 4.1342 0.918932 
Ar 24.9353 3.60479 4.11871 
Ar 23.3532 6.74236 5.64714 
Ar 28.8757 3.38155 2.75734 
Ar 30.8066 7.19275 2.60827 
Ar 32.0661 3.77418 4.493 
Ar 30.1413 7.6582 6.54739 
Ar 4.04347 6.83813 9.45018 
Ar 5.48582 9.81987 4.02189 
Ar 8.13176 12.0861 2.09398 
Ar 10.8143 12.7354 -0.217987 
Ar 8.36216 8.72742 0.838711 
Ar 11.444 13.608 4.29597 
Ar 12.9093 10.3457 2.38811 
Ar 16.7223 10.3117 4.48222 
Ar 15.3877 6.52441 4.66992 
Ar 18.8431 13.1482 3.77116 
Ar 19.4479 9.91472 1.717 
Ar 24.3427 6.76136 -0.850339 
Ar 24.631 10.2221 2.1259 
Ar 26.681 13.2037 5.67316 
Ar 28.0931 9.95623 4.16398 
Ar 30.5148 14.4049 5.39194 
Ar 31.3563 10.9811 3.77112 
Ar 34.2979 13.2623 4.31196 
Ar -0.836408 17.5897 5.15146 
Ar 2.15624 20.6108 5.63008 
Ar 4.41192 13.0926 2.33104 
Ar 6.5168 17.9994 4.7707 
Ar 9.3596 16.1172 2.06541 
Ar 11.2317 19.849 3.15778 
Ar 15.3115 13.458 4.87533 
Ar 14.0695 17.3868 4.48815 
Ar 17.1861 16.5896 2.4016 
Ar 19.8004 19.1659 0.733811 
Ar 20.6566 16.5032 4.3033 
Ar 20.3176 20.2341 4.52297 
Ar 22.3937 12.748 3.33073 
Ar 26.5424 19.6446 2.58639 
Ar 24.8124 15.831 3.74741 
Ar 30.4516 20.5075 4.85736 
Ar 30.8327 15.6747 1.49623 
Ar 33.2342 20.904 2.45185 
Ar 2.054 24.5239 2.67327 
Ar 3.77977 27.7829 4.53322 
Ar 4.68988 22.6318 7.67841 
Ar 4.84434 26.0576 8.56197 
Ar 8.1918 21.679 3.68509 
Ar 11.5105 28.4135 1.92624 
Ar 8.03147 24.2214 7.18605 
Ar 14.7865 26.3642 -0.183603 
Ar 14.6407 24.7908 3.36175 
Ar 20.0252 28.4463 4.32813 
Ar 19.2075 24.5611 5.41314 
Ar 22.6212 30.2134 2.60717 
Ar 24.6515 27.8956 4.19423 
Ar 26.6801 30.1081 5.90364 
Ar 27.3249 23.0851 3.55623 
Ar 28.4502 26.7238 4.94961 
Ar 29.4154 25.7123 1.40381 
Ar 32.829 27.1285 3.13065 
Ar 4.6834 10.4416 11.339 
Ar 8.21633 6.59131 6.64986 
Ar 6.86837 4.12653 4.58281 
Ar 11.76 6.48548 5.96753 
Ar 9.09031 2.26508 6.87737 
Ar 14.9053 3.3803 7.93562 
Ar 18.1308 2.50218 6.09244 
Ar 16.7232 6.66357 8.92205 
Ar 18.1108 3.40529 9.76546 
Ar 19.4616 6.86257 6.37304 
Ar 22.6742 1.1746 6.04187 
Ar 22.4516 7.66585 1.96524 
Ar 25.089 3.4796 7.86957 
Ar 28.2452 6.37515 10.2549 
Ar 28.7332 4.21077 6.55012 
Ar 31.7565 7.74381 10.2458 
Ar 33.1034 5.04086 7.94598 
Ar 34.4251 9.99147 9.35648 
Ar 6.17522 9.48968 8.44838 
Ar 5.51557 13.6255 5.59951 
Ar 8.99249 9.74783 5.03384 
Ar 9.00709 12.9945 6.75551 
Ar 13.7307 9.90546 6.48046 
Ar 12.9078 14.1463 7.68754 
Ar 17.5436 11.6503 7.94258 
Ar 16.2879 15.2081 9.31682 
Ar 20.9006 10.3617 5.53741 
Ar 19.957 14.3163 7.18545 
Ar 23.5495 13.5527 7.84528 
Ar 26.0889 16.2566 7.15424 
Ar 26.0982 8.81567 6.94239 
Ar 28.2172 17.249 4.49531 
Ar 29.7316 10.9241 7.46189 
Ar 32.3633 17.0862 9.37741 
Ar 32.8453 13.0279 8.08389 
Ar 36.0633 11.3787 6.77916 
Ar 3.4945 16.3617 4.16774 
Ar 5.10493 19.2949 7.42443 
Ar 7.066 15.9618 7.90338 
Ar 8.78281 19.3828 7.83764 
Ar 9.98117 16.4899 5.58691 
Ar 12.182 23.0255 1.2915 
Ar 13.9247 18.8815 8.09922 
Ar 16.4316 20.8107 5.04931 
Ar 17.575 16.7166 5.8583 
Ar 20.2317 24.2013 10.195 
Ar 22.1856 20.9133 9.41007 
Ar 23.6945 23.1717 6.02752 
Ar 23.5799 19.744 6.05984 
Ar 27.1692 20.511 6.32049 
Ar 29.1346 18.0523 9.09728 
Ar 31.3739 23.8941 4.00234 
Ar 35.7629 19.8267 10.1139 
Ar 33.7844 24.3985 7.63622 
Ar 3.22342 27.5263 11.8634 
Ar 5.3509 29.4096 9.89174 
Ar 8.33146 27.2851 10.357 
Ar 9.14812 31.1355 3.22169 
Ar 11.8645 21.5982 6.25834 
Ar 12.3198 29.05 5.87822 
Ar 12.8254 25.8961 6.46017 
Ar 16.1368 28.0845 6.44193 
Ar 17.0453 25.0228 8.00978 
Ar 19.1126 27.6161 9.18848 
Ar 22.0777 26.6163 7.01014 
Ar 25.0127 29.0695 9.12942 
Ar 25.5808 26.1046 7.10267 
Ar 28.3051 27.6418 8.74314 
Ar 31.5825 27.0236 7.33977 
Ar 30.265 30.1892 5.72525 
Ar 35.0621 27.8669 8.04463 
Ar 35.7015 32.0131 9.83999 
