216
#
Ar 0.588061 -0.269198 -1.96254 
Ar 2.39764 2.66705 1.35042 
Ar 4.31924 -1.31054 0.0126545 
Ar 5.64684 2.02983 0.297796 
Ar 7.51543 -0.368503 1.41463 
Ar 9.89046 2.24997 -1.33323 
Ar 11.8964 -1.63315 -2.78837 
Ar 12.3567 4.543 -0.554009 
Ar 13.4805 0.80764 -0.31406 
Ar 17.1334 3.98369 -0.034857 
Ar 17.4423 0.479336 0.0425258 
Ar 21.132 4.68969 -0.780968 
Ar 21.1797 0.977526 0.303688 
Ar 24.2675 2.89924 1.40301 
Ar 26.5065 0.165848 0.275328 
Ar 28.3332 3.72183 0.364309 
Ar 30.4685 0.312726 0.301257 
Ar 31.879 3.32119 -0.583248 
Ar 0.416766 6.04461 1.21215 
Ar 1.66578 12.0615 0.698081 
Ar 4.26078 5.94935 1.62182 
Ar 5.15447 10.2958 0.460354 
Ar 7.12574 4.91083 -1.14759 
Ar 8.38944 11.1645 -0.624988 
Ar 9.7267 7.3672 -0.0874746 
Ar 11.5216 11.7799 0.943953 
Ar 13.1258 8.28277 -0.252817 
Ar 16.0878 10.1868 0.447133 
Ar 18.9096 7.20826 0.181769 
Ar 19.2331 11.1943 0.00260189 
Ar 22.8611 9.01917 -0.547205 
Ar 22.3654 12.3969 -1.65164 
Ar 25.4835 6.81449 0.646888 
Ar 27.2747 12.4689 -1.80396 
Ar 28.6887 9.10683 0.247367 
Ar 31.1458 12.3072 -1.33946 
Ar -0.327041 15.2715 -0.658267 
Ar 1.02842 18.6957 0.39205 
Ar 3.34834 15.4802 -1.73654 
Ar 4.62721 18.4136 0.0198436 
Ar 7.42822 15.2644 -0.208225 
Ar 9.08866 18.7649 0.522174 
Ar 10.5284 15.7511 2.01815 
Ar 12.7805 18.7798 0.478888 
Ar 15.1109 13.5519 0.547432 
Ar 15.9787 18.283 -1.05256 
Ar 18.3485 15.0202 -0.349604 
Ar 20.2458 19.1159 -0.244594 
Ar 22.4491 16.2929 0.10661 
Ar 23.2331 19.3389 1.52829 
Ar 27.1843 16.3424 -0.193212 
Ar 26.5264 19.6186 -1.18332 
Ar 29.7403 14.3237 1.22321 
Ar 29.4693 18.5835 0.53317 
Ar -1.4097 22.002 -1.3266 
Ar 1.29233 25.1336 0.447174 
Ar 2.21254 21.7179 -0.515084 
Ar 4.77109 24.527 1.00743 
Ar 7.23175 22.0008 0.430112 
Ar 8.6383 26.0319 -0.331312 
Ar 10.996 22.0884 1.24022 
Ar 13.151 25.1518 1.5846 
Ar 14.2157 21.8178 -0.981428 
Ar 16.2156 26.1329 -0.048238 
Ar 17.8429 22.1724 -0.175009 
Ar 19.9655 26.2713 -1.01961 
Ar 21.2709 22.4821 0.606222 
Ar 22.9456 25.7093 1.15538 
Ar 24.7 22.9519 -1.30366 
Ar 26.4571 25.7087 -0.0689849 
Ar 28.824 22.386 1.158 
Ar 30.6681 25.7621 0.017725 
Ar 2.02302 0.768329 4.15532 
Ar 3.95358 4.11992 4.66215 
Ar 5.67852 0.358895 4.30023 
Ar 7.68855 5.28096 3.60401 
Ar 9.54272 2.29011 3.27645 
Ar 11.3121 5.94388 2.99422 
Ar 13.0479 2.70874 2.45444 
Ar 14.748 6.13227 2.09195 
Ar 16.6917 1.66864 3.75948 
Ar 18.4511 5.32806 3.75425 
Ar 20.2891 2.16199 3.81635 
Ar 22.3051 5.88144 3.21022 
Ar 24.0914 2.15364 4.99394 
Ar 26.4422 5.41212 4.42487 
Ar 28.4002 2.02028 3.4972 
Ar 29.4437 6.04094 2.6655 
Ar 32.0558 3.65227 3.52008 
Ar 31.4019 7.39498 5.49667 
Ar 1.70665 7.86397 3.77599 
Ar 3.40133 11.2483 4.0738 
Ar 5.55929 8.37629 3.86628 
Ar 7.54087 12.3026 2.52671 
Ar 9.70603 9.11383 4.0581 
Ar 11.0091 12.5743 4.68701 
Ar 13.5034 9.50219 3.4035 
Ar 14.7055 13.0975 4.20364 
Ar 17.2682 9.00408 3.47909 
Ar 18.6094 12.7779 3.66789 
Ar 21.2377 9.19575 2.6699 
Ar 22.2083 12.799 2.39783 
Ar 24.4821 10.3398 3.25016 
Ar 26.6044 13.6092 3.41494 
Ar 27.7601 9.58979 4.05055 
Ar 29.6582 12.0923 5.38846 
Ar 31.3929 10.3518 2.56301 
Ar 32.7732 13.9379 3.39192 
Ar 1.23542 17.2748 3.77034 
Ar 3.10547 20.3328 3.09216 
Ar 4.11207 14.6566 2.22059 
Ar 6.50795 19.6172 3.78763 
Ar 7.67515 16.2536 4.73881 
Ar 10.9165 18.9753 3.96453 
Ar 12.6135 15.9792 4.80389 
Ar 14.1952 20.5632 3.47997 
Ar 16.5009 16.7934 2.50289 
Ar 18.3662 20.9538 3.79362 
Ar 20.3887 15.8466 3.30902 
Ar 22.2006 19.8859 5.0785 
Ar 23.8904 15.7863 4.74565 
Ar 25.3136 22.158 2.44294 
Ar 26.6363 17.7936 3.11072 
Ar 28.7596 20.1994 4.07051 
Ar 30.3171 17.0701 3.76872 
Ar 31.8982 20.8239 2.40154 
Ar 1.35313 23.102 3.5723 
Ar 3.34841 26.8763 3.58127 
Ar 4.91361 23.8512 5.09013 
Ar 6.99343 26.063 3.51656 
Ar 8.56447 22.4183 4.08493 
Ar 11.0577 28.3859 1.67998 
Ar 11.3361 25.3621 4.96023 
Ar 15.1446 27.8679 2.90296 
Ar 15.5781 24.4148 4.03473 
Ar 19.397 27.2712 2.61501 
Ar 20.8847 23.4409 4.51742 
Ar 22.4158 28.1951 4.41238 
Ar 25.248 25.9741 3.35203 
Ar 26.2133 28.8255 5.57555 
Ar 28.0741 23.57 4.7584 
Ar 28.4966 26.9248 3.20374 
Ar 31.1129 24.7362 3.2242 
Ar 32.9335 27.7816 2.31458 
Ar 3.23345 3.98462 9.08955 
Ar 5.05562 7.24816 7.66267 
Ar 7.22676 3.20724 6.83481 
Ar 8.87357 6.62866 6.77051 
Ar 11.7116 3.93228 6.74055 
Ar 12.6921 7.39341 6.36856 
Ar 15.2248 4.70754 7.54882 
Ar 15.6789 8.55572 7.44143 
Ar 18.9689 3.51401 7.61219 
Ar 19.4802 7.60179 7.06476 
Ar 22.4694 2.11523 7.9477 
Ar 23.4948 6.27054 7.40064 
Ar 26.1743 3.42294 8.50358 
Ar 27.506 6.6711 7.61896 
Ar 29.9224 4.14143 7.31738 
Ar 31.1783 6.88292 9.48026 
Ar 33.3179 3.09528 6.80747 
Ar 34.8723 7.82336 9.62724 
Ar 3.87208 10.6514 8.20329 
Ar 5.55105 13.9898 6.33931 
Ar 7.04618 10.8583 6.01919 
Ar 9.65671 13.8995 7.5338 
Ar 10.632 9.94801 7.17434 
Ar 13.4726 15.893 8.90127 
Ar 13.6502 11.6754 8.33087 
Ar 17.1207 14.832 6.62196 
Ar 17.8239 11.4822 7.32513 
Ar 21.0751 15.3087 7.63246 
Ar 21.2288 10.772 6.16683 
Ar 24.5596 15.166 8.4794 
Ar 24.9629 10.5274 7.19687 
Ar 28.1799 15.0618 7.19755 
Ar 29.2517 9.78001 7.85155 
Ar 31.6495 14.6338 6.84605 
Ar 33.1031 10.325 6.85027 
Ar 35.1601 13.9403 6.29899 
Ar 4.20535 17.2729 5.7182 
Ar 4.96553 21.9986 8.42617 
Ar 6.5811 18.284 7.96635 
Ar 9.31751 20.9494 7.52442 
Ar 10.589 17.7687 7.66043 
Ar 13.2048 20.9393 6.87729 
Ar 15.114 18.2387 6.35834 
Ar 16.7024 21.6782 7.04293 
Ar 18.7414 18.3485 6.08335 
Ar 20.3916 21.7026 7.88203 
Ar 22.7683 18.6182 8.35908 
Ar 24.9544 22.1563 6.29234 
Ar 26.5583 18.2828 6.62895 
Ar 28.3712 22.2779 8.30786 
Ar 29.7709 18.6023 8.22087 
Ar 31.5001 22.0848 5.79301 
Ar 33.1192 17.7663 7.06781 
Ar 35.0039 20.971 6.76149 
Ar 4.4535 25.4696 8.13942 
Ar 7.05821 28.269 8.52633 
Ar 8.0901 25.0041 6.61058 
Ar 8.79856 28.5848 5.29675 
Ar 10.9998 23.8633 8.84731 
Ar 13.0116 29.1538 5.20927 
Ar 14.2237 24.8431 8.58182 
Ar 15.9709 30.3581 7.42525 
Ar 17.8965 25.0927 7.4685 
Ar 19.4508 28.7906 6.63562 
Ar 23.1186 24.9274 7.33299 
Ar 23.9519 27.972 9.12201 
Ar 26.7171 25.6283 7.28221 
Ar 28.803 28.2593 8.07241 
Ar 30.6923 25.5048 7.04701 
Ar 31.316 29.0339 5.19579 
Ar 33.9997 26.5266 6.15961 
Ar 36.7673 30.0421 7.47631 
