216
#
Ar -0.565627 0.337878 -2.06896 
Ar 0.956211 1.26185 1.19109 
Ar 3.2021 -1.02233 -0.226057 
Ar 6.09499 3.06939 0.749355 
Ar 6.30182 -1.64314 0.983137 
Ar 9.03389 0.626159 -0.107034 
Ar 9.91632 -0.751921 -3.2 
Ar 13.6762 3.88395 -1.36963 
Ar 13.1948 0.555729 -1.96859 
Ar 17.6857 4.90123 -0.668063 
Ar 16.9665 1.37335 -0.431549 
Ar 21.9009 5.0769 -0.898544 
Ar 20.2836 1.67149 -0.139249 
Ar 23.4894 2.6804 1.30526 
Ar 26.1782 0.072584 2.70376 
Ar 28.0221 2.95301 0.397551 
Ar 30.1296 0.565051 1.43364 
Ar 31.7342 3.48116 -0.594383 
Ar 0.0605529 7.71937 4.22551 
Ar 1.00678 10.9613 1.99291 
Ar 2.86037 6.09646 2.70233 
Ar 5.06672 12.3957 0.988709 
Ar 7.02879 3.4767 -2.62161 
Ar 6.94229 8.20571 -1.81963 
Ar 10.0416 4.84169 -0.678849 
Ar 11.3278 11.6168 -0.2241 
Ar 12.977 8.05013 -0.346603 
Ar 17.0379 11.2895 1.65288 
Ar 18.8485 8.65104 0.854347 
Ar 19.9782 11.5 -0.915277 
Ar 22.614 8.46421 -1.62119 
Ar 23.2742 12.3942 -1.75791 
Ar 25.6545 5.69377 2.41062 
Ar 27.0947 13.2063 -2.37013 
Ar 27.0615 10.0029 -0.190641 
Ar 30.5931 12.0283 -1.572 
Ar 0.928743 13.0982 -1.0765 
Ar 1.05177 17.7369 0.667297 
Ar 4.30907 15.6007 -1.32692 
Ar 4.59134 18.9332 1.98104 
Ar 6.60826 15.6978 1.59836 
Ar 8.89787 18.1201 0.229082 
Ar 10.6629 15.2714 1.15678 
Ar 12.8881 17.9339 0.501252 
Ar 14.0433 13.9033 1.31346 
Ar 16.0801 17.7392 -0.982844 
Ar 17.7529 14.6723 0.35069 
Ar 19.5504 18.4519 0.162658 
Ar 21.2911 15.2927 0.049852 
Ar 23.2968 18.2835 1.76711 
Ar 29.3674 15.9001 -0.64163 
Ar 25.7461 19.4581 -0.519264 
Ar 28.7102 12.7846 1.72563 
Ar 29.6838 19.5452 -0.376252 
Ar -1.55247 22.1287 -2.09006 
Ar 0.885876 24.5061 -0.199651 
Ar 2.61961 21.1188 -0.0425847 
Ar 5.4666 23.9507 2.67771 
Ar 6.84336 22.1539 -0.107248 
Ar 9.07742 24.4589 1.68387 
Ar 11.1365 21.2076 -0.237768 
Ar 12.5374 24.9339 0.33873 
Ar 14.5971 22.4309 -1.24939 
Ar 18.3606 24.7392 -0.0193692 
Ar 17.8165 21.1982 -1.1175 
Ar 20.8965 27.3185 -1.83629 
Ar 22.107 21.3804 -0.219806 
Ar 22.7992 25.3755 0.649592 
Ar 25.1188 23.4539 -1.36429 
Ar 26.9119 26.038 0.411038 
Ar 27.7396 22.3803 0.874464 
Ar 30.8454 26.9703 -1.17389 
Ar 2.11206 1.43323 4.39594 
Ar 4.15792 4.40184 6.07527 
Ar 5.72124 0.701651 3.88758 
Ar 7.1956 6.16852 2.49141 
Ar 11.1286 3.67721 2.89666 
Ar 12.5362 6.73412 3.73588 
Ar 14.8336 2.75026 1.74327 
Ar 15.9052 6.51088 2.08819 
Ar 17.2757 1.05938 3.62032 
Ar 18.7481 5.50009 4.30536 
Ar 21.0113 2.37409 3.61793 
Ar 21.9309 6.69492 2.40069 
Ar 24.683 3.0407 4.7556 
Ar 26.387 5.74363 6.04378 
Ar 28.5055 2.81317 4.09866 
Ar 29.6273 6.00578 1.59002 
Ar 32.4626 4.18294 3.44621 
Ar 29.8771 6.55055 5.00782 
Ar 2.08338 7.24976 7.30241 
Ar 3.31776 10.795 4.8034 
Ar 5.59858 9.17676 2.00595 
Ar 8.78546 12.6617 1.92486 
Ar 9.46113 8.92357 1.40299 
Ar 11.0408 12.9435 4.94072 
Ar 13.1389 10.4152 3.21791 
Ar 14.9849 13.0399 5.01105 
Ar 15.9948 8.9333 4.88304 
Ar 18.342 14.2494 4.03241 
Ar 19.2481 8.92945 4.49149 
Ar 23.3254 10.3888 1.59465 
Ar 23.3247 8.3312 5.07325 
Ar 25.4387 11.996 4.88782 
Ar 27.7192 9.52443 3.88549 
Ar 29.0089 12.728 5.59756 
Ar 30.4845 9.7411 1.50856 
Ar 32.3582 14.125 2.87372 
Ar 0.799634 17.1961 4.46148 
Ar 1.97475 20.5303 3.88479 
Ar 3.61761 14.462 3.21933 
Ar 7.32548 19.199 4.73259 
Ar 8.95518 15.8028 4.33686 
Ar 11.4637 18.9991 3.64462 
Ar 12.8893 15.8288 4.4019 
Ar 13.976 21.3028 1.92581 
Ar 16.2057 17.6672 3.51904 
Ar 18.1919 20.8003 2.36283 
Ar 20.5403 17.6924 3.9274 
Ar 21.3982 21.0203 4.78473 
Ar 22.5695 13.5001 3.06042 
Ar 24.4352 21.8019 2.46057 
Ar 25.5156 15.8571 2.87739 
Ar 28.3331 20.0454 3.82064 
Ar 30.6765 17.519 2.33714 
Ar 32.2257 21.7025 1.26897 
Ar 1.21837 24.1631 3.22589 
Ar 3.3161 27.3651 3.4017 
Ar 5.49822 21.6999 6.22076 
Ar 6.93417 24.9423 5.88085 
Ar 9.34618 22.1938 4.56791 
Ar 11.9897 28.4172 1.20217 
Ar 10.1896 26.0013 5.15222 
Ar 15.6631 27.329 2.23916 
Ar 16.8016 23.9646 3.25466 
Ar 19.7615 27.7022 1.60005 
Ar 20.4972 24.3099 3.64645 
Ar 22.8221 28.6886 3.55783 
Ar 25.0555 25.7095 3.71215 
Ar 25.3615 28.8838 6.40439 
Ar 28.0822 23.3421 4.80152 
Ar 28.5716 27.138 5.06934 
Ar 30.5979 24.7344 2.63274 
Ar 32.7576 27.5558 1.86688 
Ar 4.29367 6.00647 10.0745 
Ar 5.30231 7.70872 5.80094 
Ar 7.60762 3.48379 4.59652 
Ar 9.4639 6.46741 5.94617 
Ar 11.2124 3.43056 6.63584 
Ar 13.2498 7.06579 7.07348 
Ar 15.318 3.94089 6.6952 
Ar 16.1228 8.36356 9.1373 
Ar 19.1877 3.12211 7.02742 
Ar 19.1471 6.6265 7.78813 
Ar 22.0223 1.24929 7.9759 
Ar 22.5294 5.3622 6.52206 
Ar 25.4537 3.25745 8.57766 
Ar 27.9858 6.43945 9.40092 
Ar 29.3927 3.32768 7.75543 
Ar 31.9509 7.61898 9.73194 
Ar 33.4966 3.47231 7.03328 
Ar 36.0194 9.40192 10.5094 
Ar 5.78388 11.486 7.93252 
Ar 6.28692 13.6901 5.18012 
Ar 8.3628 9.98948 5.77805 
Ar 8.83308 13.7312 8.68002 
Ar 11.5323 10.3064 7.48842 
Ar 13.0596 14.9984 8.32271 
Ar 14.9908 11.7811 9.13444 
Ar 17.0443 15.2492 7.73878 
Ar 17.9432 11.8477 6.40644 
Ar 21.04 15.88 7.38553 
Ar 21.7166 11.4926 6.0427 
Ar 24.4916 15.2099 6.33957 
Ar 26.0559 9.19118 7.59109 
Ar 27.6059 16.6143 5.56911 
Ar 29.434 9.23862 7.72297 
Ar 32.1679 14.4001 7.03398 
Ar 32.6642 10.9352 6.34301 
Ar 35.8261 13.5553 7.02347 
Ar 3.89104 17.4641 6.09303 
Ar 5.44089 19.4543 9.22018 
Ar 6.93056 16.5809 7.64988 
Ar 9.10413 20.2414 7.94871 
Ar 10.2994 17.0946 7.33831 
Ar 12.9471 23.1042 4.82692 
Ar 13.6524 19.1003 7.59897 
Ar 16.3645 21.5149 6.21802 
Ar 19.3809 19.2331 7.25575 
Ar 20.7566 23.3165 7.95625 
Ar 22.465 19.1374 8.28294 
Ar 24.7624 22.6218 5.94793 
Ar 23.9422 18.7686 5.09894 
Ar 27.6427 21.7576 8.20538 
Ar 30.4489 18.7736 7.03123 
Ar 31.6597 21.5702 5.15157 
Ar 34.1405 19.3892 7.72252 
Ar 34.7497 23.2353 7.46024 
Ar 4.40949 25.4298 9.37776 
Ar 6.1192 28.0994 7.53685 
Ar 8.44918 25.1694 9.21738 
Ar 9.23823 29.2767 3.97211 
Ar 11.1011 23.2422 7.90061 
Ar 13.6385 30.3243 5.06676 
Ar 14.2489 26.1009 7.78731 
Ar 16.1621 29.0888 7.33316 
Ar 17.8864 25.4836 6.65074 
Ar 19.6964 28.957 5.48205 
Ar 23.3043 26.1319 6.76614 
Ar 24.3814 28.5271 10.7387 
Ar 27.0775 25.7658 7.89657 
Ar 28.1384 29.4024 9.17843 
Ar 32.1485 25.6364 6.48158 
Ar 31.9689 29.9539 5.46866 
Ar 35.2847 27.3562 7.20835 
Ar 36.2199 31.4283 8.74822 
