216
#
Ar -1.29349 1.35968 -2.21547 
Ar 1.08783 1.207 2.0811 
Ar 0.526034 -1.55809 -0.739108 
Ar 5.10477 2.53669 1.77615 
Ar 6.72052 -1.03369 2.20658 
Ar 8.05547 2.57533 -0.337506 
Ar 8.15886 1.05597 -3.80471 
Ar 11.6614 3.00071 -0.761419 
Ar 11.8661 -0.456906 -2.19912 
Ar 18.4021 2.10939 2.1303 
Ar 15.4851 0.490752 0.329572 
Ar 22.0181 5.21625 -3.0715 
Ar 21.4809 1.21913 -1.13118 
Ar 25.1686 3.56311 1.54542 
Ar 27.2351 -0.332759 1.65429 
Ar 28.1943 2.91009 -0.130687 
Ar 30.7034 0.419893 1.00617 
Ar 31.7882 3.70431 0.405729 
Ar 1.13018 7.28923 5.0919 
Ar 1.04968 9.70805 1.72946 
Ar 1.65838 5.18565 2.13485 
Ar 6.43837 13.4241 -0.806513 
Ar 5.29383 4.44777 -1.84267 
Ar 10.2082 9.70238 -2.30964 
Ar 8.79126 5.79041 -2.37017 
Ar 13.7934 10.7218 -0.582848 
Ar 12.0436 7.59492 -0.187152 
Ar 16.9896 9.21443 1.69382 
Ar 19.2658 6.82868 -0.626447 
Ar 20.8258 11.8122 -1.45836 
Ar 22.6139 8.83346 -3.02874 
Ar 24.2313 11.7611 0.439978 
Ar 27.005 6.23552 2.99872 
Ar 28.1114 13.5184 -2.92636 
Ar 29.0055 9.32548 0.410677 
Ar 31.5623 12.0403 0.112105 
Ar 2.4788 13.3456 0.638112 
Ar 1.74533 17.9631 1.0797 
Ar 3.21356 15.9666 -1.56379 
Ar 5.1679 19.6459 2.2057 
Ar 5.68783 16.3157 1.08053 
Ar 8.84864 19.3091 0.79672 
Ar 12.8328 14.9355 0.508653 
Ar 11.8113 18.2248 -2.00637 
Ar 15.6673 12.813 1.90411 
Ar 15.2963 19.411 -1.46681 
Ar 19.852 14.262 1.09263 
Ar 19.1899 17.313 -0.748781 
Ar 22.4811 15.879 -1.1972 
Ar 22.2341 18.8643 1.62527 
Ar 27.7416 15.7437 0.197775 
Ar 26.2845 19.1588 -0.0561096 
Ar 27.6424 12.4518 1.02014 
Ar 29.9326 18.9437 -0.538782 
Ar -1.34763 22.2267 -1.99581 
Ar 0.654317 24.4611 0.572226 
Ar 3.93112 22.2266 0.452402 
Ar 6.08263 24.0573 2.94617 
Ar 7.56507 23.0326 -0.889137 
Ar 9.18105 25.5412 1.8311 
Ar 11.5764 21.5679 0.596907 
Ar 10.6885 24.8885 -1.46806 
Ar 14.6018 23.1575 -1.18492 
Ar 18.1597 23.9139 0.25553 
Ar 18.7053 20.7725 -2.18509 
Ar 18.5621 27.917 0.483709 
Ar 21.6264 24.2899 2.24429 
Ar 21.714 26.71 -0.433836 
Ar 24.3309 22.3569 -0.651739 
Ar 26.6638 25.7064 -0.0154365 
Ar 28.324 22.3289 0.711622 
Ar 29.7845 25.3841 -2.01265 
Ar 1.15397 0.62713 5.65351 
Ar 2.79828 4.15029 5.67778 
Ar 4.95215 0.628301 5.29526 
Ar 5.78671 6.04346 2.45812 
Ar 9.79011 5.69398 2.02131 
Ar 13.4596 5.79106 2.78719 
Ar 14.3535 1.94816 3.05582 
Ar 15.2246 5.01966 -0.0960962 
Ar 16.4281 -0.551758 4.2774 
Ar 17.952 5.76276 2.74863 
Ar 19.7699 2.69465 5.62639 
Ar 21.7793 3.86766 1.86292 
Ar 24.2767 3.5042 5.04395 
Ar 25.8486 6.63093 6.66246 
Ar 28.417 2.99624 3.37831 
Ar 30.6889 6.33741 2.11772 
Ar 31.9301 3.71979 4.53107 
Ar 29.3612 6.35837 5.60017 
Ar 2.45749 6.93698 10.1678 
Ar 4.48302 9.86738 4.2089 
Ar 7.43692 12.2255 2.46973 
Ar 10.4409 12.2657 0.489764 
Ar 8.61677 9.33214 0.871182 
Ar 11.3884 13.1416 3.85936 
Ar 13.326 9.82711 3.29945 
Ar 16.4643 10.8057 4.97675 
Ar 15.053 7.61318 5.52078 
Ar 17.7356 14.0284 4.51327 
Ar 20.1522 10.7597 2.27622 
Ar 25.0157 6.34074 -0.620149 
Ar 23.7394 8.77295 3.60172 
Ar 26.1502 13.0254 4.35045 
Ar 27.8187 9.94185 4.44976 
Ar 30.12 13.294 4.81387 
Ar 30.983 9.9093 3.20363 
Ar 33.5348 13.7585 3.64147 
Ar -0.889745 17.0558 5.87089 
Ar 0.805474 20.6777 5.29839 
Ar 4.25041 13.9171 3.43845 
Ar 7.12831 18.3598 5.12325 
Ar 9.42211 15.7438 1.79024 
Ar 11.5061 19.497 3.54591 
Ar 14.3298 15.3703 4.10432 
Ar 14.8427 21.5778 2.24929 
Ar 16.607 16.7517 1.5321 
Ar 17.9458 19.8005 1.50287 
Ar 20.0959 16.7099 3.44874 
Ar 20.006 20.1053 4.97911 
Ar 22.5847 12.9528 3.5974 
Ar 24.7605 21.0637 2.95046 
Ar 24.3068 15.7411 2.06727 
Ar 28.5734 19.7879 4.06936 
Ar 30.7975 16.4248 2.32471 
Ar 32.1072 21.0327 1.64731 
Ar 1.89325 24.1155 4.3139 
Ar 3.18169 27.3904 3.0527 
Ar 5.38533 21.4493 5.67582 
Ar 6.21786 25.6341 6.24337 
Ar 8.94195 23.0539 5.16948 
Ar 11.4517 28.9083 1.69401 
Ar 10.6587 26.2504 5.68153 
Ar 14.9036 26.4374 -0.0104325 
Ar 15.9043 25.4411 3.22486 
Ar 20.1647 27.6803 3.89031 
Ar 18.9692 23.4787 5.35078 
Ar 23.2484 29.5978 2.00538 
Ar 25.005 26.1727 3.29121 
Ar 26.3899 29.2135 5.32655 
Ar 27.0593 23.549 4.71338 
Ar 28.8763 26.8139 5.14626 
Ar 30.1108 25.1843 1.57437 
Ar 32.1857 27.5318 3.22343 
Ar 5.11866 9.07498 11.0818 
Ar 6.17181 7.31646 6.06746 
Ar 7.44028 3.64123 4.93837 
Ar 10.8086 6.64445 5.22297 
Ar 11.5082 3.04293 5.29103 
Ar 13.3206 5.52247 7.88776 
Ar 16.2989 3.98445 5.4308 
Ar 15.9094 8.07996 8.95218 
Ar 18.0604 2.616 9.12297 
Ar 18.2328 6.34386 7.01166 
Ar 22.9774 0.41949 6.58993 
Ar 20.9929 6.94655 4.69277 
Ar 25.0107 2.69227 8.54571 
Ar 28.9044 6.52105 9.35843 
Ar 28.461 3.05743 7.3013 
Ar 32.1526 8.08634 10.1086 
Ar 32.7557 5.35588 7.77011 
Ar 35.4562 10.3137 8.63898 
Ar 6.94817 10.637 7.95062 
Ar 7.65856 14.4916 5.35812 
Ar 9.30387 10.1355 4.68459 
Ar 9.79169 13.3518 8.01355 
Ar 13.3597 10.0194 7.11062 
Ar 13.2723 14.1295 8.18509 
Ar 17.3303 11.5524 8.31379 
Ar 16.4992 15.7764 8.8787 
Ar 20.2312 11.043 6.01438 
Ar 19.8307 14.6911 7.18309 
Ar 23.2838 13.0416 7.17071 
Ar 25.6525 16.0326 7.94219 
Ar 26.396 10.5247 7.64596 
Ar 27.604 16.1999 3.97118 
Ar 30.2257 10.4063 6.9966 
Ar 31.445 15.3308 9.56385 
Ar 33.5526 13.3407 7.91829 
Ar 37.2501 13.2849 7.09381 
Ar 3.09701 17.3786 4.85661 
Ar 4.16338 19.2926 8.53465 
Ar 7.58241 16.7404 9.02653 
Ar 8.63211 20.3073 8.25668 
Ar 11.0966 16.1732 5.75334 
Ar 12.6355 24.0508 3.53068 
Ar 13.9722 18.7183 5.82169 
Ar 15.5553 22.4893 6.58967 
Ar 17.4758 17.8585 6.1201 
Ar 21.2343 23.1465 9.44046 
Ar 22.1609 19.7104 9.35674 
Ar 23.4416 22.2527 6.4709 
Ar 23.242 18.3834 6.03756 
Ar 27.5217 21.1915 8.2661 
Ar 28.91 17.4647 7.45679 
Ar 30.8863 23.0421 4.71079 
Ar 33.8046 18.4738 8.68284 
Ar 35.2422 22.4992 8.15927 
Ar 4.03742 25.951 10.518 
Ar 5.16294 29.6864 9.58443 
Ar 8.47804 28.2814 10.2914 
Ar 9.00194 30.592 2.90328 
Ar 11.8193 22.3521 7.907 
Ar 12.6864 28.9177 5.12367 
Ar 14.2983 25.9515 7.14091 
Ar 15.578 29.6834 7.58957 
Ar 17.6603 25.5579 8.05891 
Ar 19.462 28.6399 7.54504 
Ar 22.3948 26.1 6.4991 
Ar 24.6954 28.4159 9.48532 
Ar 26.0794 25.792 7.42498 
Ar 28.3452 28.5882 9.10969 
Ar 32.571 26.3824 6.5573 
Ar 30.3467 29.8908 4.90037 
Ar 36.0303 27.3864 6.67502 
Ar 34.8702 32.0527 8.93047 
