216
#
Ar -0.782439 0.616591 -2.09205 
Ar 1.12401 1.47054 2.11638 
Ar 1.64682 -1.29453 -0.520299 
Ar 4.64058 2.1109 1.64974 
Ar 6.55007 -1.18675 2.79665 
Ar 7.80518 2.24449 0.0938716 
Ar 8.63646 0.950904 -3.22811 
Ar 12.0463 3.12728 -0.986827 
Ar 11.4578 -0.654291 -2.40945 
Ar 18.5756 2.24414 1.71439 
Ar 15.5396 0.322206 0.5543 
Ar 21.7812 4.1822 -3.32349 
Ar 21.2374 1.42004 -0.627858 
Ar 25.2548 2.83641 1.14714 
Ar 27.436 -0.611777 1.67028 
Ar 28.597 2.83871 0.00323616 
Ar 30.9109 0.452989 1.38835 
Ar 32.2871 4.10323 -0.0152793 
Ar -0.0248171 7.81067 4.7157 
Ar 2.06712 9.31609 0.941828 
Ar 2.11825 5.3828 1.86893 
Ar 6.15194 12.8352 -0.616414 
Ar 5.57468 4.48858 -1.53655 
Ar 10.2604 9.93023 -2.40681 
Ar 9.44338 5.7122 -2.21638 
Ar 12.979 11.3189 -0.0771518 
Ar 12.1398 7.18189 -0.272568 
Ar 16.9614 9.50858 1.3951 
Ar 19.7944 7.73631 -0.556238 
Ar 20.6693 10.9721 -1.28985 
Ar 22.8825 8.19884 -3.43373 
Ar 23.6344 12.2819 0.789952 
Ar 27.1411 6.565 2.47806 
Ar 28.6518 13.5182 -2.8195 
Ar 28.5285 9.01915 -0.152351 
Ar 31.5831 12.3475 0.131129 
Ar 2.23541 13.2484 -0.0407321 
Ar 1.09118 18.1943 0.960379 
Ar 2.68088 16.4967 -2.1916 
Ar 4.89288 19.2588 2.69785 
Ar 5.75226 15.7097 1.40177 
Ar 8.10718 19.7679 0.780774 
Ar 12.5109 15.333 0.595625 
Ar 11.9483 18.5628 -1.25556 
Ar 15.5939 13.2359 1.97699 
Ar 15.566 19.2947 -1.1303 
Ar 18.9454 13.8905 1.0077 
Ar 19.528 18.0962 -0.46164 
Ar 22.5524 15.2904 -0.413698 
Ar 22.4443 18.9888 1.27467 
Ar 27.7752 16.0704 -0.179735 
Ar 25.7786 19.2511 0.0477715 
Ar 27.6343 12.8117 1.0236 
Ar 29.8998 19.2261 -0.533228 
Ar -1.60158 22.2035 -1.82689 
Ar 0.841334 24.1565 -0.0893536 
Ar 3.71283 22.1409 0.204878 
Ar 5.54941 24.3801 2.52738 
Ar 7.76782 24.1147 -0.667954 
Ar 9.40085 26.2345 2.58603 
Ar 11.2198 22.1933 0.292532 
Ar 11.3281 25.0884 -1.55942 
Ar 15.3512 22.8917 -1.72499 
Ar 18.1818 23.9156 0.865114 
Ar 18.2904 21.3906 -2.54987 
Ar 18.6706 27.79 0.071969 
Ar 21.5455 24.3553 1.98737 
Ar 22.063 26.7539 -0.995836 
Ar 24.9969 22.65 -1.37054 
Ar 27.2165 25.3033 0.160128 
Ar 28.4448 21.994 1.10362 
Ar 30.069 25.7118 -1.9272 
Ar 1.35827 0.58138 5.8938 
Ar 2.92758 4.07906 6.27254 
Ar 5.29068 0.464515 5.64705 
Ar 6.22753 6.20751 1.85953 
Ar 10.1462 4.97912 2.11539 
Ar 13.262 6.18242 2.72771 
Ar 13.4268 2.72713 2.58111 
Ar 16.172 5.12001 0.494932 
Ar 16.6909 -0.640505 4.48503 
Ar 18.2204 6.13519 3.24752 
Ar 18.9664 3.02681 5.31852 
Ar 21.388 4.19702 2.23318 
Ar 24.1717 3.46142 4.95409 
Ar 25.9257 6.15199 6.69731 
Ar 28.0945 3.1896 3.45661 
Ar 30.853 6.79281 1.60698 
Ar 31.8786 3.30696 4.27914 
Ar 29.5103 6.07443 5.28271 
Ar 2.96016 6.87381 9.03296 
Ar 3.48596 9.97212 4.69853 
Ar 6.65074 11.9614 2.82759 
Ar 9.55727 12.8531 0.688809 
Ar 9.03611 8.40681 1.31125 
Ar 11.0794 13.3375 4.11138 
Ar 12.3605 9.38809 3.16172 
Ar 16.2726 11.0822 4.74682 
Ar 15.3269 7.49305 5.27936 
Ar 17.9539 14.1146 4.80259 
Ar 20.7222 9.91391 2.51597 
Ar 24.3233 7.28597 -0.312205 
Ar 24.2767 9.32707 4.03295 
Ar 25.7041 12.4619 4.53876 
Ar 28.5987 9.29768 4.74732 
Ar 29.7336 13.2715 4.31332 
Ar 31.3419 10.5206 3.14498 
Ar 33.6916 13.1052 3.16757 
Ar -0.932156 15.8565 5.27328 
Ar 0.167624 19.9633 4.93067 
Ar 3.81055 14.1355 3.81232 
Ar 7.33194 18.2851 5.34699 
Ar 9.52165 16.4174 2.36552 
Ar 10.7712 19.3769 4.35516 
Ar 13.8165 15.788 4.81307 
Ar 14.941 21.8272 2.2751 
Ar 16.4171 17.2055 1.34144 
Ar 18.4527 20.2558 2.64381 
Ar 20.547 17.0402 3.12258 
Ar 21.5813 20.5008 4.54976 
Ar 21.7607 13.8326 4.18216 
Ar 24.4835 21.9304 2.41579 
Ar 24.6351 15.9191 1.90854 
Ar 27.7161 19.214 4.79958 
Ar 30.7013 17.0115 2.23946 
Ar 32.2205 21.2729 1.80506 
Ar 2.37169 23.637 4.59792 
Ar 3.21559 27.3485 2.57626 
Ar 4.66375 21.1772 5.69778 
Ar 6.53409 26.1745 5.74519 
Ar 8.2583 21.9236 4.77341 
Ar 12.28 28.6906 1.2514 
Ar 10.2807 26.5098 6.2868 
Ar 14.7288 26.2815 -0.295056 
Ar 16.7271 25.0337 3.82504 
Ar 20.1171 27.2321 3.54703 
Ar 19.424 23.2377 5.24494 
Ar 23.1601 29.2446 2.66096 
Ar 24.8365 25.9265 3.09037 
Ar 26.2722 29.6441 5.06418 
Ar 27.3525 23.1859 4.05151 
Ar 28.2896 26.3157 4.78107 
Ar 30.5359 25.1834 1.60332 
Ar 32.859 27.3667 3.22638 
Ar 5.47803 9.54518 11.3193 
Ar 6.05586 7.21023 6.68236 
Ar 7.27423 3.65047 6.09807 
Ar 10.5122 7.16421 5.63069 
Ar 11.5882 3.52675 5.82519 
Ar 13.2896 5.89243 7.67356 
Ar 15.4805 3.18186 6.1002 
Ar 15.0739 8.18369 9.26335 
Ar 17.7319 2.51194 8.53277 
Ar 18.5693 6.03741 7.0655 
Ar 22.6501 0.345972 6.71013 
Ar 21.7467 7.01227 4.63287 
Ar 25.1781 3.00516 8.8048 
Ar 29.0858 6.05725 9.13231 
Ar 28.3993 2.80723 7.10341 
Ar 32.5621 8.4228 9.72566 
Ar 32.7017 5.57764 7.30376 
Ar 35.9442 10.3863 8.59846 
Ar 6.14391 10.6782 7.60013 
Ar 7.61457 14.5207 4.80703 
Ar 8.79579 10.5516 5.13083 
Ar 8.97278 13.766 7.94144 
Ar 13.4445 10.3234 6.901 
Ar 13.3543 14.1115 7.7915 
Ar 16.6623 11.9126 9.11128 
Ar 16.4986 15.5988 8.29581 
Ar 19.6672 11.1564 6.04482 
Ar 20.0954 14.9746 7.55833 
Ar 23.3437 12.8864 7.64139 
Ar 25.064 16.3774 8.02094 
Ar 26.1404 10.3476 8.3646 
Ar 27.233 15.9684 4.29734 
Ar 30.4681 10.5807 7.84771 
Ar 31.4835 15.472 9.53026 
Ar 33.295 13.124 6.96534 
Ar 37.4381 13.5563 7.37508 
Ar 2.53685 17.1061 4.83352 
Ar 5.03754 19.3949 9.42048 
Ar 7.17247 16.8297 8.89303 
Ar 8.61766 20.3208 8.0581 
Ar 10.6335 16.6906 6.6106 
Ar 12.7733 24.351 3.27666 
Ar 14.422 18.8854 6.11465 
Ar 15.8379 22.2501 5.48183 
Ar 18.9224 18.3515 6.30027 
Ar 21.2124 23.0654 9.09906 
Ar 22.8437 19.1059 8.57512 
Ar 23.7942 22.062 6.52435 
Ar 23.9868 17.7633 4.59479 
Ar 28.1824 21.6289 7.86374 
Ar 29.0684 17.0976 7.24682 
Ar 30.6559 22.6706 5.57123 
Ar 33.2565 19.2296 8.50523 
Ar 34.9543 22.5638 8.03705 
Ar 4.53422 25.6174 10.0918 
Ar 4.76413 29.2726 9.22596 
Ar 7.57216 27.6183 10.5755 
Ar 9.24744 30.7372 3.43548 
Ar 12.5033 21.6958 7.06375 
Ar 12.5883 29.1966 5.1547 
Ar 13.7799 25.3942 6.59901 
Ar 15.4106 28.9163 8.02859 
Ar 18.1835 25.4746 8.25627 
Ar 19.1845 29.1332 7.01329 
Ar 22.0121 25.642 5.96114 
Ar 25.1095 28.546 9.72303 
Ar 26.42 24.8724 7.14083 
Ar 28.6393 29.1105 8.97958 
Ar 32.5883 25.8062 6.4513 
Ar 30.0488 29.4131 4.56499 
Ar 35.9115 26.8719 6.81149 
Ar 35.1301 32.0372 9.36881 
