216
#
Ar 0.267745 0.0494155 -0.459505 
Ar 1.94547 3.04325 1.26043 
Ar 3.85292 -0.361162 0.6469 
Ar 5.27751 3.11882 0.510018 
Ar 7.9137 -0.203156 0.684367 
Ar 9.26924 2.82544 -0.495211 
Ar 11.6122 -1.31903 -1.68605 
Ar 12.6471 4.21387 -0.460958 
Ar 14.0393 -0.00222138 1.29438 
Ar 16.6145 4.45549 0.0325935 
Ar 17.7755 -0.186446 -0.211153 
Ar 21.3238 4.90855 0.251387 
Ar 21.5841 -0.0641145 0.681802 
Ar 25.0559 3.36061 1.59772 
Ar 25.8163 -0.0230711 0.562841 
Ar 28.352 3.74267 -1.013 
Ar 29.7259 0.0400984 0.343054 
Ar 31.936 3.36823 -0.744865 
Ar -0.104304 6.65684 1.14925 
Ar 2.01844 12.0459 -0.177896 
Ar 3.37638 6.33984 0.628925 
Ar 5.32461 10.2179 0.215009 
Ar 7.07046 5.96281 -0.546828 
Ar 8.68711 11.7946 -0.336625 
Ar 9.58426 8.3291 0.374489 
Ar 12.8949 11.3954 0.0769538 
Ar 13.7604 7.7556 -1.25504 
Ar 16.1864 10.2959 -0.127818 
Ar 18.6916 7.55545 0.337235 
Ar 19.8023 11.8744 0.253869 
Ar 22.3548 8.42438 -0.554324 
Ar 23.7257 11.8072 -0.830491 
Ar 26.0657 6.82476 0.93815 
Ar 27.3119 11.9522 -0.334423 
Ar 28.983 8.64958 -0.157729 
Ar 30.9698 11.7658 -0.692128 
Ar -0.0773302 15.5305 -0.0828242 
Ar 1.65079 18.5683 -0.110928 
Ar 3.65873 15.2892 -0.597701 
Ar 5.84535 18.2475 0.456475 
Ar 7.33814 15.36 -1.16071 
Ar 9.57739 18.1497 0.44456 
Ar 10.6601 14.5674 0.432759 
Ar 12.7467 17.1126 1.41744 
Ar 15.5262 14.0156 0.206373 
Ar 16.5489 18.5553 -1.17928 
Ar 18.9526 15.5769 -0.334313 
Ar 20.043 19.0252 0.685059 
Ar 22.273 15.5838 0.10149 
Ar 23.5961 18.6029 0.832928 
Ar 25.5989 15.236 -0.129144 
Ar 27.0738 18.9685 -0.971664 
Ar 29.0747 14.4878 1.06982 
Ar 30.1305 18.1482 1.13225 
Ar -0.256072 22.7507 -1.30642 
Ar 1.45925 25.6802 -0.837847 
Ar 3.11252 21.7176 -0.461939 
Ar 5.12618 25.2594 0.846953 
Ar 7.01104 21.7188 0.103727 
Ar 8.58729 25.4046 0.0164743 
Ar 10.7771 22.1273 0.48878 
Ar 12.2923 25.3724 0.673518 
Ar 13.8863 20.8816 -0.122183 
Ar 16.3368 25.1637 -0.553713 
Ar 18.0388 21.5988 -0.294384 
Ar 20.1007 25.8189 -0.403096 
Ar 21.7121 22.6654 0.695786 
Ar 24.1887 26.5174 1.21796 
Ar 25.4588 23.3492 0.0152313 
Ar 27.584 26.4166 0.108839 
Ar 29.2129 22.907 0.709053 
Ar 31.0416 26.2322 -0.741344 
Ar 1.94839 0.488632 3.91572 
Ar 3.20961 3.99716 4.53532 
Ar 5.87794 0.593605 3.54246 
Ar 6.7177 4.47344 3.11172 
Ar 9.52901 1.8982 3.23814 
Ar 10.2437 5.55663 3.26667 
Ar 13.2825 2.94 3.29774 
Ar 14.9396 6.25018 2.71391 
Ar 17.1436 2.27987 2.94258 
Ar 18.5837 5.51424 3.84771 
Ar 20.8033 2.41269 3.33279 
Ar 22.2858 5.48368 3.75121 
Ar 24.0355 1.97491 4.81884 
Ar 26.6066 5.40413 4.27665 
Ar 27.5388 1.84153 3.57939 
Ar 29.5296 5.28665 2.2666 
Ar 31.989 2.26959 2.75085 
Ar 31.7902 6.77277 4.95163 
Ar 1.96553 8.97623 4.50654 
Ar 3.51692 12.8577 3.88123 
Ar 5.69713 9.38687 4.31925 
Ar 6.90054 12.4347 3.81578 
Ar 9.41446 9.1204 3.88713 
Ar 10.9546 12.6996 3.8476 
Ar 13.3684 10.0244 3.61034 
Ar 14.7365 13.1206 4.07617 
Ar 16.9262 9.07578 3.00103 
Ar 18.4642 12.5252 3.60878 
Ar 20.8954 8.80482 2.92344 
Ar 22.3674 12.4449 2.9369 
Ar 24.7707 9.96711 2.05034 
Ar 25.7926 13.4754 3.73475 
Ar 27.7803 8.91266 4.0497 
Ar 29.1323 12.6081 4.60707 
Ar 31.2943 9.82731 2.60493 
Ar 33.139 13.2581 3.03351 
Ar 1.36636 16.8341 3.1502 
Ar 3.20045 19.9049 2.87724 
Ar 5.09008 15.8967 3.31352 
Ar 6.42535 19.2224 4.20803 
Ar 8.76667 16.1309 3.59769 
Ar 10.243 19.7534 4.11834 
Ar 12.9141 15.9116 4.76335 
Ar 14.0346 20.1125 3.6628 
Ar 16.3054 17.0382 3.13506 
Ar 17.8538 21.019 3.59915 
Ar 19.5438 16.921 3.6538 
Ar 21.7022 19.9361 3.74725 
Ar 23.1164 16.086 3.41335 
Ar 25.8253 21.0488 2.69717 
Ar 26.958 17.4009 3.01414 
Ar 28.9383 20.2581 4.48778 
Ar 30.6072 16.2718 4.83956 
Ar 32.575 20.7519 2.6809 
Ar 1.89623 23.8296 2.36174 
Ar 3.7524 26.8482 3.71159 
Ar 5.06806 22.422 4.53587 
Ar 7.72795 26.5903 3.43646 
Ar 8.55868 22.7606 3.30504 
Ar 11.1637 28.0214 2.67874 
Ar 11.6709 24.378 5.0919 
Ar 15.6715 27.6214 3.95201 
Ar 15.5673 23.7548 3.67628 
Ar 19.2847 26.8814 3.66275 
Ar 20.6459 23.1434 3.84987 
Ar 22.5299 28.2506 4.45143 
Ar 24.2964 25.1044 4.35382 
Ar 26.1758 28.3748 5.34926 
Ar 27.9049 23.632 4.35638 
Ar 28.9678 27.1788 3.36417 
Ar 31.3347 24.1354 3.4666 
Ar 32.4129 27.4606 2.73276 
Ar 3.82519 4.24597 8.53984 
Ar 5.02559 7.66001 7.63236 
Ar 6.9578 2.89132 6.51853 
Ar 9.04633 6.23297 7.20752 
Ar 11.0016 2.90718 6.94754 
Ar 12.5764 7.02741 5.73771 
Ar 15.0333 4.83121 7.49973 
Ar 16.5935 8.77043 7.43542 
Ar 18.3338 3.58227 7.94106 
Ar 20.2514 7.2588 7.40553 
Ar 21.6381 2.89151 8.22681 
Ar 23.7154 6.4036 6.75558 
Ar 25.3472 3.11937 7.746 
Ar 27.1865 6.39773 7.66026 
Ar 29.5639 4.17336 5.67078 
Ar 30.7537 6.24619 8.69421 
Ar 32.9887 3.04033 6.54955 
Ar 34.4823 7.35278 8.43253 
Ar 3.8277 11.2618 7.38758 
Ar 5.67235 14.6362 6.74592 
Ar 7.43626 11.3646 7.34643 
Ar 9.89081 14.1224 7.44394 
Ar 11.1522 10.3845 7.9571 
Ar 13.2846 15.1455 8.65575 
Ar 14.6195 12.0891 7.67412 
Ar 16.6489 15.263 6.27749 
Ar 18.2169 12.1894 7.85435 
Ar 20.5818 14.8803 7.69665 
Ar 21.8025 11.0054 6.55121 
Ar 24.1034 15.0806 7.5628 
Ar 25.447 10.0778 6.49686 
Ar 27.6921 15.6892 7.30696 
Ar 28.9049 10.37 7.75736 
Ar 30.985 14.4374 8.02312 
Ar 32.3932 11.5899 6.31737 
Ar 34.9153 14.5435 6.9719 
Ar 3.66037 17.7349 7.12287 
Ar 5.31198 23.0626 8.10328 
Ar 7.34036 18.2696 7.58173 
Ar 8.93805 21.7874 7.01386 
Ar 10.8896 18.2709 7.91191 
Ar 12.9707 21.0144 7.33832 
Ar 14.7607 18.0483 6.62372 
Ar 16.8378 21.3448 6.90537 
Ar 18.8879 18.0475 7.14911 
Ar 20.3352 21.8952 8.0125 
Ar 22.286 18.6328 8.70196 
Ar 24.1023 21.9138 6.24517 
Ar 25.5137 18.26 6.17856 
Ar 27.825 22.3214 8.03509 
Ar 29.9157 18.3878 7.92409 
Ar 31.9101 22.0172 6.26015 
Ar 33.2847 17.671 7.23571 
Ar 35.391 21.052 6.6476 
Ar 4.16717 26.1204 7.846 
Ar 6.52389 29.0598 8.54133 
Ar 7.93747 25.1977 7.13235 
Ar 9.43392 28.6254 6.54339 
Ar 11.0626 24.0424 8.5311 
Ar 12.875 29.1841 5.96757 
Ar 14.6538 24.5172 7.30669 
Ar 16.5276 29.7839 6.84473 
Ar 18.248 24.5022 6.20384 
Ar 19.7995 28.6346 7.3491 
Ar 22.342 24.9799 7.38825 
Ar 23.1842 29.0937 8.01637 
Ar 25.8994 25.6232 7.77771 
Ar 28.1629 29.7151 8.1445 
Ar 29.6062 26.4168 6.90434 
Ar 31.2167 29.547 5.97928 
Ar 33.1837 26.3563 6.26383 
Ar 35.547 29.7306 7.85967 
