216
#
Ar -0.402955 0.742914 -1.27169 
Ar 1.05702 1.29536 2.4213 
Ar 0.323187 -2.73512 0.152919 
Ar 4.94066 1.88166 2.31455 
Ar 6.97494 -1.1256 1.98725 
Ar 8.70114 1.78563 0.371117 
Ar 8.13103 -1.67994 -4.83601 
Ar 12.2328 2.72215 0.695797 
Ar 12.0672 -0.438953 -1.58402 
Ar 18.3634 2.07594 2.426 
Ar 16.2602 0.289752 -1.38032 
Ar 21.671 4.30824 -2.94524 
Ar 21.0875 0.970232 -1.13591 
Ar 24.7128 3.63494 0.26832 
Ar 26.5953 0.978999 1.67827 
Ar 28.1662 1.8795 -1.93625 
Ar 30.4597 0.174362 1.55412 
Ar 31.3242 3.91218 0.445332 
Ar 1.58806 7.75421 5.26144 
Ar 1.91622 10.6805 2.37088 
Ar 2.04453 5.8362 0.954022 
Ar 4.97198 12.8578 -1.33886 
Ar 6.32499 4.15867 -1.73454 
Ar 10.3191 9.32933 -2.5059 
Ar 10.1922 5.08785 -1.62898 
Ar 13.6232 10.8958 -1.32738 
Ar 13.3234 6.60218 -1.11433 
Ar 15.805 8.72651 0.390015 
Ar 19.5269 6.86689 -1.17205 
Ar 21.1466 12.2143 -0.10025 
Ar 23.2228 10.0492 -2.62264 
Ar 24.7322 13.6609 0.129911 
Ar 26.0765 6.48486 1.99443 
Ar 28.494 14.3809 -1.79274 
Ar 26.7844 9.63168 -0.0271783 
Ar 30.9325 11.8882 0.0414368 
Ar 1.31059 13.9324 -0.106207 
Ar 0.808592 18.2335 1.41344 
Ar 3.70196 15.5579 -3.84465 
Ar 4.79865 21.0751 3.08911 
Ar 4.67612 16.5551 0.239423 
Ar 7.33161 18.8262 0.488568 
Ar 13.0475 15.2997 1.01728 
Ar 10.8335 16.8874 -1.54181 
Ar 17.4046 12.1284 0.344967 
Ar 14.8575 20.7759 1.46161 
Ar 20.633 15.5057 0.36134 
Ar 19.632 18.3038 -3.46067 
Ar 22.7714 17.3287 -1.6054 
Ar 23.5055 17.978 1.97218 
Ar 27.1022 17.1394 0.790218 
Ar 25.1659 19.6896 -1.0863 
Ar 28.0326 13.0568 2.21679 
Ar 29.8493 19.3837 0.625696 
Ar -0.971907 20.3964 -3.00399 
Ar -1.14892 22.88 -0.307784 
Ar 2.80148 23.7216 -0.135743 
Ar 6.03539 24.7628 4.09302 
Ar 7.41568 22.6392 0.284296 
Ar 9.79778 25.8104 3.49342 
Ar 11.0983 20.6819 -0.568762 
Ar 11.7596 24.768 -0.841939 
Ar 14.1698 22.0768 -1.87315 
Ar 17.9303 22.2813 2.16344 
Ar 17.1368 20.4082 -1.33559 
Ar 18.1848 26.3852 2.21706 
Ar 22.1301 24.8688 2.79325 
Ar 22.3809 27.0721 0.0373164 
Ar 24.2439 24.1292 -0.930614 
Ar 26.0227 26.7742 1.47179 
Ar 27.8312 22.5555 0.354796 
Ar 29.343 23.9129 -3.93198 
Ar 1.14372 1.49777 6.23648 
Ar 3.06702 4.26363 4.51764 
Ar 4.97426 1.1146 6.13251 
Ar 5.5973 6.41463 2.45066 
Ar 8.88089 4.909 2.06277 
Ar 11.9777 7.09852 2.74048 
Ar 12.6993 4.01042 4.05328 
Ar 15.632 4.46348 1.44116 
Ar 15.1309 -0.00288929 2.71437 
Ar 18.4374 6.17079 2.54928 
Ar 21.2873 4.04725 4.48871 
Ar 21.031 3.69809 0.889708 
Ar 25.1751 3.4684 4.18011 
Ar 23.7618 6.65604 5.34533 
Ar 28.5678 3.87833 2.95164 
Ar 30.4049 7.00319 2.11716 
Ar 32.0852 4.18696 4.22352 
Ar 31.1094 7.71964 6.03749 
Ar 3.09281 6.75013 8.61102 
Ar 5.94966 9.94161 4.65474 
Ar 7.82464 12.3925 2.13224 
Ar 10.5923 12.5073 0.178359 
Ar 8.65478 8.60348 1.1518 
Ar 11.5225 13.4357 4.05894 
Ar 13.1971 10.8558 2.18317 
Ar 17.1598 9.83517 4.00287 
Ar 15.6632 6.74134 4.50179 
Ar 19.1127 13.3339 3.34966 
Ar 19.5542 9.60568 1.61617 
Ar 24.2837 6.66374 -1.2968 
Ar 24.7073 10.3364 2.99079 
Ar 26.3055 12.3004 6.27906 
Ar 27.8271 9.18745 3.99902 
Ar 30.1538 14.4155 5.09672 
Ar 31.1045 11.1369 4.00311 
Ar 33.6415 14.154 4.0677 
Ar -0.0162602 17.4133 5.65039 
Ar 1.89294 20.0888 5.52724 
Ar 4.17644 13.3769 2.56769 
Ar 7.09923 18.0591 3.94889 
Ar 9.16708 15.6782 1.84989 
Ar 11.2339 19.0145 2.90501 
Ar 15.3149 13.3548 5.10903 
Ar 13.5615 16.6534 4.49556 
Ar 17.137 16.4479 2.2057 
Ar 19.8377 19.1799 0.821028 
Ar 20.8661 16.5975 4.43159 
Ar 19.8349 19.8533 4.53155 
Ar 22.7374 13.2618 3.92039 
Ar 26.5997 20.2741 2.79469 
Ar 25.5193 15.7385 3.76364 
Ar 30.5348 21.0472 4.04607 
Ar 30.9653 15.2718 1.55559 
Ar 33.8362 22.0061 2.20507 
Ar 2.60379 24.5246 3.78005 
Ar 3.80841 27.5567 4.6631 
Ar 4.07547 23.1266 6.76666 
Ar 5.61902 26.2637 7.89382 
Ar 8.3355 21.5919 3.45623 
Ar 11.3431 28.8459 2.01285 
Ar 8.66551 23.7612 7.069 
Ar 14.8166 26.3374 -0.486089 
Ar 14.8352 25.5072 3.14168 
Ar 19.6916 29.043 4.88838 
Ar 19.5861 23.4895 5.14719 
Ar 22.4943 30.176 2.40342 
Ar 24.2705 27.8314 4.39339 
Ar 26.7994 30.0924 5.99521 
Ar 27.8268 23.7534 3.75311 
Ar 28.4556 27.2996 4.28241 
Ar 29.7243 26.2259 0.949508 
Ar 32.9629 28.0313 4.40642 
Ar 4.9438 9.54891 11.8689 
Ar 8.30415 6.76222 6.94734 
Ar 6.43839 4.2939 5.07128 
Ar 12.0387 6.65145 6.54122 
Ar 9.10756 1.81834 7.74151 
Ar 14.4593 3.61408 7.22765 
Ar 17.8457 2.37381 6.18944 
Ar 16.4848 6.78846 7.86965 
Ar 18.174 3.57925 9.66059 
Ar 19.9058 7.11253 6.11002 
Ar 22.7694 1.01542 6.61535 
Ar 22.5017 6.85044 1.79801 
Ar 25.1841 3.8559 7.93541 
Ar 28.5837 6.17557 10.1016 
Ar 28.3571 4.85616 6.61038 
Ar 31.5115 8.77433 9.85927 
Ar 32.9893 5.2807 8.11057 
Ar 35.2235 10.3614 9.84222 
Ar 6.16185 9.70129 8.22372 
Ar 6.35418 13.9293 5.6394 
Ar 9.94489 9.66798 4.71143 
Ar 8.87632 12.8952 7.94374 
Ar 13.1818 10.4263 5.66583 
Ar 12.3397 13.7843 7.51894 
Ar 17.3534 11.4172 7.76503 
Ar 17.0595 15.1347 9.71844 
Ar 20.5182 10.5555 5.29902 
Ar 19.8204 14.4715 7.4703 
Ar 23.4644 14.0303 7.55439 
Ar 26.1087 16.7746 8.00923 
Ar 26.3278 8.23872 6.95401 
Ar 28.2739 17.5304 4.87499 
Ar 28.897 10.3606 8.11745 
Ar 32.5874 16.5864 9.12131 
Ar 32.4381 11.7451 7.19076 
Ar 35.7938 11.5632 6.03617 
Ar 3.34985 16.9399 3.78348 
Ar 5.01379 19.2345 7.45925 
Ar 7.01982 16.2811 8.32926 
Ar 8.84165 19.8752 7.81959 
Ar 10.5336 17.196 5.96367 
Ar 12.1475 22.8986 2.37139 
Ar 14.4856 17.689 8.75651 
Ar 15.8608 19.5328 5.15029 
Ar 16.6296 16.4714 6.26795 
Ar 20.2654 24.0818 10.2099 
Ar 21.9095 20.8102 8.77117 
Ar 22.845 22.9827 6.22184 
Ar 23.3814 18.9136 6.07511 
Ar 27.2011 21.2636 6.57965 
Ar 29.1463 18.3941 8.137 
Ar 31.6316 24.6691 4.24195 
Ar 36.0243 20.1536 10.5078 
Ar 33.5605 23.977 6.84037 
Ar 3.90995 27.2218 11.6562 
Ar 5.84832 29.5972 9.36002 
Ar 8.32611 26.719 9.95056 
Ar 9.07984 31.5308 4.05525 
Ar 12.0872 21.8565 5.92413 
Ar 12.1995 30.068 5.85883 
Ar 13.0547 25.9107 6.15872 
Ar 16.0932 27.9708 6.15601 
Ar 16.6288 24.4187 7.64555 
Ar 18.8239 27.3592 9.78882 
Ar 21.7493 26.6005 7.00549 
Ar 24.9156 29.0333 9.0484 
Ar 25.8187 25.0549 6.9381 
Ar 28.4439 27.56 9.04884 
Ar 31.436 26.7408 7.63718 
Ar 30.6387 30.2028 6.03644 
Ar 35.2575 27.7844 8.2214 
Ar 35.9773 32.4415 9.46677 
