216
#
Ar -0.137621 0.0398218 -0.0847405 
Ar 1.99598 3.22895 0.649117 
Ar 3.52903 -0.524475 0.587938 
Ar 5.75086 2.17547 -0.246054 
Ar 7.83534 -0.594437 0.442454 
Ar 8.85425 3.5818 0.591005 
Ar 11.3562 -0.511594 -0.515293 
Ar 12.4688 4.02584 0.345206 
Ar 14.8022 -0.297905 0.988532 
Ar 16.4574 4.26352 -0.136313 
Ar 18.3557 -0.50258 -0.310828 
Ar 20.6144 4.45744 0.525487 
Ar 21.9724 0.00416352 0.22543 
Ar 24.0271 3.86475 1.01572 
Ar 25.6589 0.484761 0.40144 
Ar 27.709 3.71686 -0.83854 
Ar 29.2171 0.606729 -0.0415814 
Ar 31.3953 3.57508 -0.415257 
Ar -0.473339 7.05573 0.733079 
Ar 1.67795 11.2643 -0.430371 
Ar 3.51346 6.89269 0.299201 
Ar 5.1951 10.5726 -0.467986 
Ar 7.09543 6.51279 -0.355411 
Ar 8.99796 11.5032 -0.184302 
Ar 10.8822 8.13569 0.592269 
Ar 12.4918 11.1736 0.115853 
Ar 14.5713 7.50736 -0.214045 
Ar 16.6242 10.451 -0.34678 
Ar 18.4747 7.50433 0.156032 
Ar 19.9533 11.6884 -0.104805 
Ar 22.0675 8.40192 -0.508642 
Ar 23.9891 11.7398 -0.648947 
Ar 26.0995 6.8079 0.223923 
Ar 27.6744 11.4495 -0.18966 
Ar 29.3457 8.33492 0.155871 
Ar 31.3102 11.1661 0.117623 
Ar -0.10835 14.7781 -0.602498 
Ar 1.71959 18.2623 -0.57029 
Ar 3.74168 14.7975 -0.412628 
Ar 5.65484 18.6036 0.280083 
Ar 7.29255 15.1607 -0.444274 
Ar 9.59021 17.9373 -0.203745 
Ar 11.1914 14.5414 0.140617 
Ar 12.9998 17.5188 0.540726 
Ar 14.8624 13.8732 0.019323 
Ar 16.5133 18.0959 0.00697547 
Ar 18.6212 14.8573 -0.119631 
Ar 19.8035 18.327 0.672313 
Ar 22.0511 15.0244 -0.622252 
Ar 23.5362 18.6331 0.493362 
Ar 25.9512 14.8469 0.0529095 
Ar 26.9667 18.3342 -0.735009 
Ar 29.6334 14.3895 0.952719 
Ar 30.9895 17.9981 0.839834 
Ar -0.185436 22.1361 -0.503417 
Ar 2.09201 25.7597 -0.325094 
Ar 3.68694 21.4874 -0.326811 
Ar 5.61646 25.7012 0.577825 
Ar 7.23557 22.1378 0.024128 
Ar 9.09139 25.2406 -0.0887065 
Ar 10.8721 21.2756 -0.163657 
Ar 12.5828 25.2704 0.956178 
Ar 14.399 21.1208 -0.564412 
Ar 16.1121 25.7816 -0.434051 
Ar 17.9027 22.4512 -0.0145433 
Ar 20.3074 25.2015 -0.683036 
Ar 22.0744 21.7298 -0.145474 
Ar 23.5551 25.8972 0.607208 
Ar 25.5996 22.5441 0.206099 
Ar 27.6061 25.8846 -0.0836548 
Ar 29.3619 22.461 0.22097 
Ar 31.5392 25.9026 -0.0606834 
Ar 2.1354 1.20004 3.9247 
Ar 3.27278 4.66806 3.91458 
Ar 5.74898 1.44453 3.77404 
Ar 7.04338 5.53637 3.86266 
Ar 9.33895 1.91906 3.63573 
Ar 10.8198 5.40164 3.04367 
Ar 13.1153 2.57873 3.80934 
Ar 14.9674 5.91909 2.90012 
Ar 16.9267 1.7116 3.41734 
Ar 18.7272 5.42056 3.33569 
Ar 20.4328 1.71864 3.48174 
Ar 22.3303 5.91784 3.95406 
Ar 23.9661 1.97519 4.35549 
Ar 25.9313 5.39583 4.53694 
Ar 27.7761 1.42451 3.20735 
Ar 29.3475 5.41406 2.73519 
Ar 31.3823 1.90368 3.60848 
Ar 32.9028 6.21229 4.29323 
Ar 1.80371 9.23843 4.74106 
Ar 3.30457 12.738 3.82073 
Ar 5.78105 8.86531 4.32138 
Ar 7.42164 13.0794 4.12518 
Ar 9.26978 9.35023 4.72154 
Ar 11.4223 13.302 3.4827 
Ar 12.7515 9.40035 3.31618 
Ar 14.929 13.145 3.46712 
Ar 16.8456 9.93038 3.85022 
Ar 18.8279 13.2509 4.19646 
Ar 20.1613 9.36685 3.35317 
Ar 22.2297 12.8963 3.27161 
Ar 24.1011 9.08506 3.37581 
Ar 25.5452 13.4593 4.56331 
Ar 27.7419 8.50966 3.54103 
Ar 29.2304 12.7915 4.24906 
Ar 31.3632 9.83157 3.45676 
Ar 32.4219 13.192 3.04492 
Ar 1.5957 16.232 4.29439 
Ar 3.46316 19.9459 2.92829 
Ar 5.02238 16.5815 3.36098 
Ar 7.24071 20.385 4.37335 
Ar 8.80801 16.4406 2.80216 
Ar 10.7432 19.588 3.99874 
Ar 12.4185 16.5602 4.93958 
Ar 14.4457 20.5859 3.68198 
Ar 16.0934 16.5816 3.42976 
Ar 18.1952 19.8376 3.36629 
Ar 19.7795 16.5275 3.87197 
Ar 22.2746 19.476 4.26706 
Ar 23.5665 16.068 3.24085 
Ar 25.9946 20.6109 3.32627 
Ar 27.1975 16.9085 2.9732 
Ar 29.5658 19.7031 4.4351 
Ar 30.7906 16.3025 4.34364 
Ar 32.9496 20.7293 2.74367 
Ar 1.66351 23.8043 2.45033 
Ar 3.6151 27.1764 3.38448 
Ar 5.1124 23.9137 3.69592 
Ar 7.64137 27.2901 3.70622 
Ar 8.43397 23.6429 3.19184 
Ar 11.2222 27.8271 3.25272 
Ar 12.0466 23.8629 4.17218 
Ar 15.2047 27.2211 4.28794 
Ar 15.7859 23.653 2.78288 
Ar 18.6057 27.5734 3.66196 
Ar 20.5689 23.6755 4.49884 
Ar 22.096 27.9275 4.23182 
Ar 24.0685 24.4346 4.01661 
Ar 25.7605 27.8575 4.44839 
Ar 27.8773 23.5529 3.73083 
Ar 28.9743 27.1392 3.26459 
Ar 31.1376 24.0304 3.15183 
Ar 32.9422 27.5628 3.16003 
Ar 3.50117 3.88728 7.64351 
Ar 5.17516 8.00113 7.82251 
Ar 7.18173 3.16213 7.06475 
Ar 8.84002 6.33206 6.88055 
Ar 10.9431 3.24731 6.65796 
Ar 12.3614 6.58771 5.74748 
Ar 14.2388 3.70084 7.01484 
Ar 16.8093 8.35729 7.21436 
Ar 18.7344 3.57864 7.7179 
Ar 20.3544 7.09775 6.79469 
Ar 22.2817 3.87227 7.70955 
Ar 24.0889 6.95364 7.54209 
Ar 25.7839 3.5797 7.42532 
Ar 27.6526 7.42065 7.5111 
Ar 29.0885 3.99013 5.98672 
Ar 31.1735 6.99561 7.94003 
Ar 32.9379 3.63225 7.10015 
Ar 34.8914 7.03392 7.67147 
Ar 3.21208 11.2507 7.41253 
Ar 5.97625 15.075 6.91046 
Ar 7.02424 11.119 7.18358 
Ar 9.69217 14.1305 7.53247 
Ar 11.2638 10.621 6.94166 
Ar 13.3819 15.1736 8.30661 
Ar 14.8504 11.412 6.68567 
Ar 16.4879 14.7834 6.847 
Ar 18.3951 11.9244 7.75015 
Ar 20.3501 14.8189 6.74025 
Ar 21.7965 11.1928 7.53187 
Ar 23.7252 15.043 7.4261 
Ar 25.1654 9.98256 6.51761 
Ar 27.552 15.0262 7.01729 
Ar 28.9609 10.7866 6.99836 
Ar 30.957 14.3204 7.22275 
Ar 32.433 11.4251 6.48968 
Ar 34.652 14.5766 7.33825 
Ar 3.87857 18.1238 7.59865 
Ar 5.77229 22.2989 7.29343 
Ar 7.46477 18.1718 8.15288 
Ar 9.48223 21.1463 7.54934 
Ar 11.1924 18.1697 7.79454 
Ar 13.0883 21.8114 7.02456 
Ar 14.6877 18.5291 7.37354 
Ar 16.9559 21.2988 7.68574 
Ar 18.1633 17.863 7.22277 
Ar 20.2659 22.2075 7.76642 
Ar 21.9016 18.1531 7.53689 
Ar 24.0513 22.0208 6.93907 
Ar 25.2492 18.4342 6.40272 
Ar 27.5511 22.4194 7.64011 
Ar 29.5006 18.3434 7.84082 
Ar 31.3873 22.4251 6.90047 
Ar 32.8143 18.2819 7.2006 
Ar 34.9414 21.2454 7.57611 
Ar 3.61905 26.7313 7.60159 
Ar 5.85686 29.5084 8.08429 
Ar 7.71826 25.5041 7.03585 
Ar 9.25667 29.0159 6.39817 
Ar 11.4378 25.1605 8.43515 
Ar 12.7311 29.366 6.47067 
Ar 14.5085 25.4234 7.28548 
Ar 16.3356 30.0885 6.92191 
Ar 18.1207 25.0858 7.22104 
Ar 19.8065 28.4214 7.72621 
Ar 22.077 25.5961 7.13889 
Ar 23.9661 29.4016 8.07905 
Ar 25.4057 25.7829 7.61226 
Ar 27.4944 29.665 7.83637 
Ar 29.3396 25.7942 7.38473 
Ar 31.5361 29.4456 6.85015 
Ar 33.0368 25.8308 7.01797 
Ar 34.7553 30.1116 7.60759 
