216
#
Ar -1.31342 1.77269 -2.48132 
Ar 1.15428 1.37671 1.88089 
Ar -0.417411 -1.11238 -0.385384 
Ar 4.3771 2.61801 2.0655 
Ar 6.4509 -1.13295 2.31121 
Ar 9.42586 2.004 -0.912394 
Ar 9.11498 -0.646122 -4.46808 
Ar 12.4768 2.89109 0.564377 
Ar 12.2797 0.264215 -2.02474 
Ar 18.4086 1.489 2.58341 
Ar 16.1299 0.837236 -0.0722283 
Ar 21.6071 4.88745 -2.96275 
Ar 21.7106 1.51725 -1.44185 
Ar 25.3198 3.66291 0.155632 
Ar 26.4171 -0.316582 1.78948 
Ar 28.2756 2.12385 -1.20038 
Ar 29.9054 0.267752 1.57253 
Ar 30.6731 3.61135 0.536888 
Ar 2.80453 7.88523 6.03845 
Ar 1.66882 9.09205 2.73149 
Ar 1.58887 5.00285 1.31969 
Ar 5.59477 12.9211 -1.41691 
Ar 6.3449 4.42002 -2.3078 
Ar 10.5342 9.55418 -2.91979 
Ar 10.4938 5.46404 -1.92197 
Ar 14.0045 11.2663 -0.884631 
Ar 12.938 7.72859 -0.729463 
Ar 16.1511 8.17061 1.0688 
Ar 19.4171 7.44012 0.0285016 
Ar 21.0181 12.0148 -0.433704 
Ar 22.7326 9.49953 -2.19431 
Ar 24.7439 13.2545 0.175658 
Ar 26.4343 6.57473 2.65682 
Ar 28.3855 14.2186 -2.17431 
Ar 27.8991 10.0826 -0.431579 
Ar 31.6301 12.2158 0.21185 
Ar 1.7263 13.827 0.422222 
Ar 1.77426 17.3864 2.0199 
Ar 2.80113 15.907 -2.31131 
Ar 4.69332 20.151 2.46436 
Ar 4.9895 16.8438 0.724035 
Ar 7.80474 18.8439 0.375302 
Ar 13.1592 15.6905 1.33456 
Ar 10.5128 17.2921 -1.83105 
Ar 16.7036 13.0926 1.19705 
Ar 14.5779 19.3055 0.0275012 
Ar 20.1942 15.1888 0.753467 
Ar 19.2541 17.3569 -1.90041 
Ar 23.4953 15.6606 -1.61803 
Ar 23.0182 18.9736 1.83405 
Ar 27.0506 16.7564 0.850352 
Ar 25.3728 19.1369 -1.07086 
Ar 28.5872 13.5621 1.54989 
Ar 29.9277 18.9978 1.11701 
Ar -1.54282 21.2141 -3.0035 
Ar -0.201503 24.01 0.191487 
Ar 3.22822 23.0196 -0.596727 
Ar 5.80558 24.8495 4.1303 
Ar 7.73731 22.5519 0.855033 
Ar 9.48438 25.3409 2.60512 
Ar 11.14 20.6082 -0.634712 
Ar 10.674 24.4209 -1.55696 
Ar 13.93 22.3764 -1.59721 
Ar 18.5351 23.046 1.87245 
Ar 17.79 20.9469 -2.18939 
Ar 18.0781 26.8722 0.723968 
Ar 21.7152 24.7404 2.96015 
Ar 22.6801 27.3142 -0.300615 
Ar 24.2443 22.6357 -1.27271 
Ar 25.8731 25.6222 0.791975 
Ar 27.4073 21.748 0.342652 
Ar 28.5825 23.7513 -4.19105 
Ar 0.756856 1.40352 5.39995 
Ar 2.55592 4.284 4.78472 
Ar 4.27131 1.51103 6.6325 
Ar 4.58189 6.62023 3.07308 
Ar 8.18263 4.51227 1.09938 
Ar 12.4087 6.10319 2.49255 
Ar 14.5936 2.81106 3.90302 
Ar 15.5349 4.58831 0.671806 
Ar 15.7622 -1.27108 3.64514 
Ar 18.1195 5.45095 2.78668 
Ar 21.116 3.65577 4.4124 
Ar 22.1406 4.65829 0.802496 
Ar 24.775 3.45665 3.68861 
Ar 23.5711 7.0938 6.25518 
Ar 28.3239 3.57649 3.08099 
Ar 30.3771 7.57742 3.00144 
Ar 31.8938 4.35199 3.92924 
Ar 29.5553 7.3598 6.9152 
Ar 3.2221 6.6012 9.00285 
Ar 5.01398 10.2752 3.80793 
Ar 7.93882 12.6704 2.33347 
Ar 10.877 13.5469 -0.285575 
Ar 7.61876 9.14542 0.68331 
Ar 11.6254 13.6788 3.95046 
Ar 12.7069 9.76304 2.39105 
Ar 17.1478 9.30058 4.36728 
Ar 15.2305 6.05811 5.15216 
Ar 18.8099 13.4558 4.76746 
Ar 19.2718 10.3941 2.16834 
Ar 24.2562 6.93089 -0.968029 
Ar 24.5706 10.0883 2.09651 
Ar 26.7836 13.1352 5.18477 
Ar 28.2934 10.117 3.83409 
Ar 30.2992 13.8673 5.03721 
Ar 31.8673 10.9266 3.70271 
Ar 34.3198 13.4784 4.14406 
Ar -0.089637 17.0303 5.79617 
Ar 2.25213 20.0448 5.43109 
Ar 4.7123 13.2817 2.16854 
Ar 7.21136 17.6913 3.77667 
Ar 9.70779 15.9582 2.03191 
Ar 10.8441 19.1378 3.00707 
Ar 15.4322 14.7548 4.17481 
Ar 14.3937 18.1197 3.91362 
Ar 16.9788 16.8456 1.78688 
Ar 19.491 19.4454 1.70275 
Ar 20.4326 16.4681 3.90469 
Ar 20.3014 21.0985 4.82067 
Ar 22.2248 13.3299 3.4112 
Ar 26.4574 19.7728 3.57082 
Ar 24.8322 15.6413 3.60908 
Ar 30.2547 20.2448 4.80529 
Ar 31.4291 15.4318 2.12729 
Ar 33.1784 20.7746 1.82509 
Ar 1.96727 23.5692 2.73917 
Ar 3.51658 28.1791 4.6706 
Ar 5.91021 22.3464 7.06203 
Ar 5.69206 25.3641 9.31116 
Ar 7.73595 21.6466 4.06238 
Ar 11.6757 28.1616 1.85972 
Ar 8.37495 24.5416 6.35663 
Ar 14.1981 26.1005 0.389142 
Ar 15.809 24.7215 3.21047 
Ar 20.2825 28.5594 4.27735 
Ar 18.9211 24.6415 5.45384 
Ar 22.7012 30.1911 2.10936 
Ar 24.4401 26.8966 4.58188 
Ar 27.0794 29.7344 6.57755 
Ar 27.1257 23.8846 3.63336 
Ar 28.3095 27.1791 4.37048 
Ar 29.5514 25.5717 1.49532 
Ar 33.4764 27.1785 3.44149 
Ar 4.34969 9.67412 10.6184 
Ar 7.5033 7.12046 6.4458 
Ar 6.74786 3.9189 4.35307 
Ar 11.0335 6.86502 5.76676 
Ar 9.48445 3.20006 6.70005 
Ar 13.6708 3.81425 8.23815 
Ar 18.0175 2.19907 6.45918 
Ar 16.1421 7.15268 8.68003 
Ar 18.3728 3.74727 9.99663 
Ar 19.1132 6.85431 6.50491 
Ar 23.3309 0.856219 6.00932 
Ar 21.6028 7.34029 3.03619 
Ar 24.8432 3.95345 7.46694 
Ar 28.1996 5.75562 10.3195 
Ar 28.2625 4.02976 6.62469 
Ar 31.6391 6.95725 10.4077 
Ar 32.8495 5.07075 7.52323 
Ar 33.905 9.75141 9.21441 
Ar 6.58788 10.597 7.04368 
Ar 5.87627 13.5944 5.36894 
Ar 9.43764 9.7935 4.27642 
Ar 9.48752 12.9336 7.35167 
Ar 13.7977 9.50031 6.19277 
Ar 12.9245 15.0794 7.39825 
Ar 17.9885 10.9108 7.8715 
Ar 15.9782 15.7018 9.07086 
Ar 20.8997 10.1856 5.669 
Ar 20.5625 13.9182 7.76375 
Ar 24.2478 12.6092 7.52651 
Ar 26.3784 16.6395 6.93139 
Ar 26.4601 9.14919 7.54825 
Ar 28.6968 17.2146 4.07013 
Ar 30.118 10.6756 7.60551 
Ar 32.7375 16.8481 9.98526 
Ar 32.8228 13.8855 7.72567 
Ar 35.9069 11.6514 7.07751 
Ar 3.7514 16.6754 4.71784 
Ar 5.5373 19.3608 8.93375 
Ar 7.02032 15.7394 8.05688 
Ar 8.43691 19.3564 6.89385 
Ar 10.2245 16.6327 5.56858 
Ar 12.7928 22.715 1.92217 
Ar 13.9918 19.0206 7.59836 
Ar 16.7846 21.7203 5.39545 
Ar 17.7518 17.0891 5.78325 
Ar 21.0071 23.8882 9.55666 
Ar 21.4331 20.3396 9.21094 
Ar 23.7812 23.4091 6.13205 
Ar 23.5258 18.5609 5.95179 
Ar 26.4621 20.6743 6.98496 
Ar 29.266 17.7362 8.6773 
Ar 31.3916 23.9816 3.98443 
Ar 35.5432 19.6464 10.1048 
Ar 34.5467 24.3759 6.86937 
Ar 2.7134 26.6008 11.663 
Ar 5.10002 29.3075 10.2369 
Ar 8.86641 27.7367 10.3398 
Ar 9.63746 30.7877 2.95149 
Ar 10.7619 22.062 6.70348 
Ar 12.4594 28.9988 5.19455 
Ar 12.9986 25.4684 6.55381 
Ar 15.1531 28.5628 7.45584 
Ar 17.0559 25.2921 8.73261 
Ar 18.7463 28.6258 8.48421 
Ar 21.8073 26.4597 7.20451 
Ar 25.0741 30.0201 9.52724 
Ar 26.0556 26.6508 7.87061 
Ar 29.1434 27.652 9.72551 
Ar 31.1905 26.8007 6.7712 
Ar 30.1246 30.5237 5.10118 
Ar 35.2773 28.3562 8.10485 
Ar 35.5366 32.4358 9.66155 
