216
#
Ar -0.378627 0.870387 -1.53198 
Ar 1.19678 0.792409 2.01853 
Ar -0.110434 -2.67569 0.000826569 
Ar 4.6871 1.88158 2.22972 
Ar 7.04686 -1.07777 2.55054 
Ar 8.35358 1.68122 0.095365 
Ar 8.33304 -1.43215 -5.09416 
Ar 11.7913 3.03571 0.829022 
Ar 12.3927 -0.339958 -1.57008 
Ar 18.2775 2.38367 2.46026 
Ar 16.2277 0.375193 -0.504946 
Ar 21.2709 4.21148 -2.66708 
Ar 21.6281 0.847848 -1.12401 
Ar 24.542 3.39771 0.652357 
Ar 26.7053 0.387727 1.38325 
Ar 28.5493 2.03294 -1.69418 
Ar 30.2381 0.163096 1.68214 
Ar 31.4829 4.19411 0.170192 
Ar 2.19399 7.81922 5.69476 
Ar 1.37138 10.1166 2.28341 
Ar 1.45639 5.63029 1.34641 
Ar 5.00142 13.2097 -1.7447 
Ar 6.46165 4.28539 -1.91601 
Ar 9.86866 9.77516 -2.20199 
Ar 10.1172 4.97436 -1.59608 
Ar 14.2902 11.644 -1.32111 
Ar 13.2303 6.82993 -1.25215 
Ar 15.9603 8.56194 0.925001 
Ar 19.879 7.01476 -0.94293 
Ar 21.6289 11.9508 -0.031401 
Ar 22.6191 9.65448 -2.57315 
Ar 25.2976 13.6935 0.441487 
Ar 26.2075 6.50279 2.31408 
Ar 28.2879 13.9774 -1.76043 
Ar 26.9006 9.8586 -0.510369 
Ar 30.8743 12.0151 0.258896 
Ar 1.62844 14.1894 0.684577 
Ar 0.780896 17.6071 1.71691 
Ar 2.63005 15.8405 -3.07382 
Ar 4.56448 20.0855 2.64284 
Ar 4.83157 16.3579 0.318867 
Ar 7.41442 19.1327 0.183415 
Ar 12.7605 15.5101 1.25362 
Ar 10.9707 16.5409 -1.64115 
Ar 17.4228 12.2479 0.709498 
Ar 14.8465 20.3916 1.60763 
Ar 20.5088 15.6206 0.645982 
Ar 19.7424 17.9743 -2.97018 
Ar 23.005 17.3945 -1.97486 
Ar 23.1102 18.1538 1.40962 
Ar 27.4946 16.3243 0.85047 
Ar 25.8567 20.4043 -0.877082 
Ar 28.1912 13.0902 2.45712 
Ar 30.1709 19.424 1.04105 
Ar -0.750597 20.7193 -3.1801 
Ar -1.35085 23.4945 -0.608775 
Ar 2.6398 23.7826 -0.513558 
Ar 6.52436 25.0069 4.14542 
Ar 7.49976 22.6461 -0.540661 
Ar 9.93573 25.2631 3.1498 
Ar 11.3648 20.4738 -0.622778 
Ar 11.3639 24.971 -1.5142 
Ar 14.1378 22.6233 -1.94781 
Ar 18.301 22.2686 2.29996 
Ar 17.3196 20.2522 -1.65688 
Ar 18.2005 26.0288 2.20392 
Ar 22.4144 25.0837 3.06955 
Ar 22.3628 27.0554 -0.0174403 
Ar 24.6761 23.6629 -0.891526 
Ar 25.9102 26.3623 1.03896 
Ar 28.2182 22.7279 -0.205638 
Ar 29.0019 24.1427 -3.63535 
Ar 1.23011 1.41569 5.95087 
Ar 2.78128 4.38457 4.65174 
Ar 4.97886 1.53314 6.34828 
Ar 5.35402 6.84169 2.19568 
Ar 8.90271 5.17529 1.59503 
Ar 11.9029 6.94064 2.30653 
Ar 13.1432 3.56673 4.30355 
Ar 15.0808 4.26509 1.36543 
Ar 15.7868 -0.194342 2.76873 
Ar 18.8064 6.1196 2.68136 
Ar 20.9332 3.86836 4.4984 
Ar 21.1087 4.29657 0.801561 
Ar 25.1708 3.58006 4.14032 
Ar 23.4159 6.64315 5.27913 
Ar 28.9108 3.61555 2.9723 
Ar 30.6677 7.16297 2.64114 
Ar 32.1539 3.72214 4.48388 
Ar 30.3825 7.61647 6.11073 
Ar 3.59342 6.99135 9.04016 
Ar 5.52333 9.9079 4.22785 
Ar 7.6549 12.0412 1.97764 
Ar 10.6839 12.5512 -0.10286 
Ar 8.43924 8.77107 0.886286 
Ar 11.6512 13.7893 4.20854 
Ar 13.0515 10.3554 2.31283 
Ar 16.9417 10.3435 4.37118 
Ar 15.5524 6.61265 4.62977 
Ar 19.0193 13.1476 3.45307 
Ar 19.6556 9.57024 1.48893 
Ar 24.3509 6.79176 -1.02108 
Ar 24.62 10.3066 2.42766 
Ar 26.6636 12.8693 6.01782 
Ar 28.2006 9.80875 4.08375 
Ar 30.4107 14.483 5.25078 
Ar 31.429 11.0191 3.60693 
Ar 34.1019 13.3952 4.18827 
Ar -0.641771 17.7 5.32502 
Ar 2.30165 20.6278 5.4816 
Ar 4.28092 13.373 2.37254 
Ar 6.98797 17.8816 4.54248 
Ar 9.25839 16.0585 2.16687 
Ar 11.2713 19.8351 3.00832 
Ar 15.3249 13.4359 4.97315 
Ar 13.8387 17.0014 4.51234 
Ar 17.1765 16.5503 2.51247 
Ar 19.788 19.1951 0.639326 
Ar 20.553 16.1995 4.30019 
Ar 20.1516 20.1576 4.49341 
Ar 22.6076 13.0547 3.49747 
Ar 26.5715 19.8446 2.5942 
Ar 24.8973 15.7113 3.65924 
Ar 30.5696 20.6848 4.80232 
Ar 30.9282 15.7292 1.38378 
Ar 33.4696 21.0586 2.51683 
Ar 2.37687 24.746 2.83033 
Ar 3.82294 27.7235 4.65032 
Ar 4.15479 22.7641 7.35704 
Ar 5.04054 25.9754 8.3085 
Ar 8.15495 21.7931 3.58751 
Ar 11.4596 28.6648 2.14849 
Ar 8.10762 24.0478 7.19372 
Ar 14.7701 26.5288 -0.259844 
Ar 14.6698 24.969 3.12269 
Ar 19.8938 28.7483 4.56215 
Ar 19.4222 24.2244 5.19694 
Ar 22.7987 30.3682 2.36279 
Ar 24.5389 27.8268 4.26855 
Ar 26.7054 30.3279 5.86304 
Ar 27.7518 23.3485 3.50502 
Ar 28.5076 26.882 5.05819 
Ar 29.4905 25.6508 1.31981 
Ar 32.7991 27.3918 3.57569 
Ar 4.98038 10.2775 11.6305 
Ar 8.13375 6.67078 6.76691 
Ar 6.7787 4.0659 4.90095 
Ar 11.8861 6.4001 6.10562 
Ar 9.17244 2.35808 7.28917 
Ar 15.0061 3.49477 7.64693 
Ar 18.0176 2.47313 6.0588 
Ar 16.5837 6.6214 8.55219 
Ar 18.016 3.23303 9.68608 
Ar 19.6186 6.88886 6.46016 
Ar 22.6306 1.30966 6.28726 
Ar 22.2881 7.39459 1.9388 
Ar 25.0568 3.50708 7.74777 
Ar 28.4146 6.36196 10.2523 
Ar 28.6549 4.46678 6.52805 
Ar 31.6901 8.13168 10.1515 
Ar 33.0681 5.14434 8.14895 
Ar 34.6752 10.0272 9.43656 
Ar 6.30825 9.35136 8.41812 
Ar 5.66187 13.6102 5.50367 
Ar 9.27032 9.66689 5.02861 
Ar 8.92113 12.9154 7.1194 
Ar 13.5761 10.0911 6.09575 
Ar 12.6893 13.9672 7.73516 
Ar 17.6152 11.8592 8.03734 
Ar 16.5797 15.1624 9.25327 
Ar 20.6984 10.5056 5.43053 
Ar 19.9419 14.2219 7.30395 
Ar 23.455 13.9007 7.71988 
Ar 25.9512 16.3137 7.39959 
Ar 26.0957 8.70233 7.30901 
Ar 27.9569 17.2704 4.67242 
Ar 29.4495 11.0158 7.72552 
Ar 32.5243 16.8525 9.39843 
Ar 32.5565 12.4057 7.8417 
Ar 36.0862 11.4325 6.43286 
Ar 3.41694 16.4299 3.83903 
Ar 5.13005 19.3592 7.40629 
Ar 6.97459 16.1607 7.96787 
Ar 8.72646 19.3403 7.94928 
Ar 10.0006 16.86 5.67681 
Ar 12.0791 23.054 1.78343 
Ar 14.1768 18.4681 8.3245 
Ar 16.2441 20.3686 5.01994 
Ar 17.1135 16.5703 5.99992 
Ar 20.3833 24.0777 10.0807 
Ar 21.9674 21.2453 9.26914 
Ar 23.3818 23.1913 5.9966 
Ar 23.4014 19.5931 6.17115 
Ar 27.5113 20.6968 6.43121 
Ar 29.1148 18.3386 8.74321 
Ar 31.1498 24.1803 3.99034 
Ar 35.8691 19.9488 10.2799 
Ar 33.8457 24.2562 7.61927 
Ar 3.37167 27.4258 11.7567 
Ar 5.51714 29.3743 9.83312 
Ar 8.54143 26.9298 10.173 
Ar 9.22739 31.2425 3.53955 
Ar 11.966 21.6554 6.10135 
Ar 12.0923 29.553 5.55521 
Ar 12.7583 25.873 6.62493 
Ar 16.0911 28.0521 6.16639 
Ar 16.9302 24.8279 7.83432 
Ar 19.1647 27.3252 9.47138 
Ar 21.9532 26.5393 6.95502 
Ar 25.0518 29.0094 9.1562 
Ar 25.7522 25.7885 6.80722 
Ar 28.3723 27.6703 8.74292 
Ar 31.3249 26.818 7.10267 
Ar 30.1787 29.9817 5.81778 
Ar 35.0248 28.1305 7.90945 
Ar 35.8474 32.1957 9.73152 
