216
#
Ar -1.13573 0.741451 -2.21498 
Ar 1.30388 1.54715 1.77949 
Ar 1.58508 -1.25255 -0.372572 
Ar 4.6529 2.29344 1.65265 
Ar 6.40138 -1.22592 2.51747 
Ar 7.98048 2.48972 -0.0203724 
Ar 8.28349 1.07547 -3.15771 
Ar 11.8028 3.33351 -0.970193 
Ar 11.7134 -0.726548 -2.33742 
Ar 18.3258 2.19063 1.75896 
Ar 15.6212 0.366206 0.48059 
Ar 22.0091 4.49001 -3.30591 
Ar 21.3124 1.33767 -0.726853 
Ar 25.2701 2.96144 1.29652 
Ar 27.3351 -0.606272 1.93252 
Ar 28.6616 3.00842 -0.224887 
Ar 30.9077 0.454839 1.1338 
Ar 32.0439 4.13382 -0.301888 
Ar -0.0693877 7.7225 4.65611 
Ar 1.99235 9.41124 1.14899 
Ar 1.82748 5.03558 2.13789 
Ar 6.18442 12.9602 -0.830253 
Ar 5.46595 4.6218 -1.54919 
Ar 10.3067 9.90281 -2.5755 
Ar 9.3098 5.69213 -2.22827 
Ar 13.2223 11.364 -0.0713633 
Ar 12.0835 7.24785 -0.269008 
Ar 16.8072 9.4892 1.29141 
Ar 19.6559 7.47646 -0.697296 
Ar 20.7513 11.2948 -1.32249 
Ar 23.0303 8.30284 -3.36851 
Ar 23.7225 12.1166 0.636973 
Ar 26.9167 6.57704 2.5089 
Ar 28.4958 13.6919 -2.69936 
Ar 28.8179 9.11724 -0.0981618 
Ar 31.4896 12.3827 0.138938 
Ar 2.35123 13.1531 -0.0442753 
Ar 1.31907 18.1516 1.14476 
Ar 2.93559 16.3829 -2.01801 
Ar 4.86048 19.2237 2.78868 
Ar 5.6899 15.9058 1.42327 
Ar 8.42224 19.5814 0.797754 
Ar 12.6856 15.2346 0.656256 
Ar 12.0166 18.5139 -1.59678 
Ar 15.7873 13.2447 2.06432 
Ar 15.3485 19.2933 -1.29078 
Ar 19.2299 13.9189 1.02695 
Ar 19.6158 18.0807 -0.376072 
Ar 22.4091 15.512 -0.742936 
Ar 22.6114 18.9081 1.32417 
Ar 27.7524 16.2718 -0.164767 
Ar 25.6941 19.0691 0.0925936 
Ar 27.7106 12.6565 0.862506 
Ar 29.9863 18.966 -0.797638 
Ar -1.57368 22.0945 -2.06766 
Ar 0.809613 24.0719 0.0351478 
Ar 4.00154 22.2297 0.0578532 
Ar 5.62836 24.1946 2.57566 
Ar 7.41384 23.9419 -0.717378 
Ar 9.55587 25.9843 2.52738 
Ar 11.2986 22.3285 0.378683 
Ar 10.871 25.1917 -1.48756 
Ar 15.1797 22.9107 -1.63857 
Ar 18.3396 23.9874 0.738122 
Ar 18.3552 21.1675 -2.33141 
Ar 18.6908 27.705 0.168598 
Ar 21.7906 24.1217 2.05554 
Ar 22.0127 26.7917 -0.844366 
Ar 25.0312 22.6042 -1.34393 
Ar 27.0569 25.1158 -0.0491648 
Ar 28.4204 22.0801 0.945195 
Ar 30.0569 25.6311 -1.91705 
Ar 1.21204 0.713019 5.73369 
Ar 2.7402 3.98454 6.07123 
Ar 5.35525 0.483975 5.62334 
Ar 6.06722 6.10709 2.02266 
Ar 10.0548 4.89705 1.88705 
Ar 13.4893 5.88973 2.79104 
Ar 13.878 2.42367 2.58321 
Ar 16.0854 5.13163 0.29487 
Ar 16.6668 -0.676858 4.77555 
Ar 18.1782 5.83447 3.03428 
Ar 18.9902 3.00796 5.17882 
Ar 21.5771 4.29577 2.35882 
Ar 24.1228 3.26582 4.90246 
Ar 25.9683 6.31887 6.69349 
Ar 28.2411 3.0929 3.59268 
Ar 30.9582 6.65886 1.95808 
Ar 32.0651 3.52598 4.54294 
Ar 29.5527 6.05807 5.60217 
Ar 2.91216 6.97429 9.32865 
Ar 3.61053 9.86112 4.38605 
Ar 6.63434 12.0881 2.63264 
Ar 10.007 12.8121 0.499309 
Ar 9.3342 8.76444 1.38104 
Ar 11.11 13.4005 3.91928 
Ar 12.0548 9.28283 3.10964 
Ar 16.2572 10.976 4.84834 
Ar 15.3953 7.56705 5.35214 
Ar 18.0085 14.0465 4.57682 
Ar 20.6344 10.2241 2.49376 
Ar 24.6034 7.03927 -0.19542 
Ar 24.5138 9.17465 3.91691 
Ar 25.8039 12.7169 4.46145 
Ar 28.1302 9.45486 4.55934 
Ar 29.9191 13.4784 4.39615 
Ar 31.4542 10.4128 3.34858 
Ar 33.4848 13.1166 3.46349 
Ar -0.856909 16.0393 5.18344 
Ar 0.30929 19.9997 5.22131 
Ar 4.04332 14.1421 3.97258 
Ar 7.26501 18.1157 5.51231 
Ar 9.40826 16.2491 2.25404 
Ar 11.0027 19.4031 4.12239 
Ar 13.9373 15.7076 4.52806 
Ar 15.1511 21.7469 2.05487 
Ar 16.0861 16.6433 1.31307 
Ar 18.3154 20.1611 2.37406 
Ar 20.2612 16.5923 3.40336 
Ar 21.1463 20.3454 4.46897 
Ar 22.0419 13.7052 3.97119 
Ar 24.2558 21.9317 2.68347 
Ar 24.5874 16.0547 2.17785 
Ar 27.8757 19.6433 4.85575 
Ar 30.7689 16.8097 2.15411 
Ar 32.1999 21.2049 1.66021 
Ar 2.33457 23.8431 4.77906 
Ar 3.12541 27.3963 2.68833 
Ar 4.7521 21.1447 5.62812 
Ar 6.7362 26.0177 5.79313 
Ar 8.44706 22.1351 4.99087 
Ar 12.1944 28.8594 1.18602 
Ar 10.002 26.3937 6.15283 
Ar 14.8464 26.378 -0.277444 
Ar 16.5221 25.0061 3.69426 
Ar 20.0103 27.4331 3.60213 
Ar 19.1189 23.0708 5.21151 
Ar 23.2803 29.5277 2.41806 
Ar 25.0312 26 2.91152 
Ar 26.0015 29.5121 4.95539 
Ar 27.3177 22.9568 4.37651 
Ar 28.5445 26.5595 4.60082 
Ar 30.2202 25.3025 1.71458 
Ar 32.79 27.7116 3.2683 
Ar 5.46199 9.7501 11.436 
Ar 6.26522 7.1014 6.5605 
Ar 7.29054 3.7936 5.98408 
Ar 10.6459 6.99559 5.43462 
Ar 11.4966 3.47844 5.61922 
Ar 13.3709 5.60822 7.71668 
Ar 15.423 3.67023 5.80814 
Ar 15.3183 8.24132 9.44067 
Ar 17.5799 2.62136 9.05026 
Ar 18.4593 6.22356 6.93801 
Ar 22.896 0.380339 6.59774 
Ar 21.4725 6.81738 4.71956 
Ar 25.1005 2.95959 8.64501 
Ar 29.0945 5.91793 9.00129 
Ar 28.3414 2.89887 7.35141 
Ar 32.4269 8.35415 9.85313 
Ar 32.3928 5.52861 7.37201 
Ar 35.8715 10.6076 8.79031 
Ar 6.3541 10.2512 7.57706 
Ar 7.7584 14.5524 4.84524 
Ar 9.10516 10.2753 5.08032 
Ar 9.06489 13.775 8.108 
Ar 13.6249 10.5428 7.06606 
Ar 13.4422 13.9296 7.77887 
Ar 16.7265 11.5542 8.83208 
Ar 16.482 15.7278 8.57296 
Ar 19.6766 11.1768 6.10597 
Ar 19.9137 15.0274 7.42152 
Ar 23.4174 12.9297 7.51444 
Ar 25.0285 16.2452 7.96128 
Ar 25.9296 10.3591 8.14523 
Ar 27.2525 15.887 4.19674 
Ar 30.4188 10.5235 7.67188 
Ar 31.4157 15.5731 9.70186 
Ar 33.3751 13.2345 7.02908 
Ar 37.3854 13.4874 7.23737 
Ar 2.53142 17.2395 4.59708 
Ar 4.66641 19.4953 9.27022 
Ar 7.19546 16.9485 8.79151 
Ar 8.81614 20.3268 8.04541 
Ar 10.834 16.5135 6.572 
Ar 12.5726 24.2666 3.13994 
Ar 14.5067 19.0524 6.00549 
Ar 15.7084 22.2381 6.02962 
Ar 18.5147 18.0734 6.21505 
Ar 21.1862 23.3125 8.99213 
Ar 22.7601 19.2517 8.80407 
Ar 23.5524 21.9681 6.44168 
Ar 23.6555 18.0039 5.07539 
Ar 28.038 21.4645 7.76007 
Ar 29.0516 17.2371 7.5186 
Ar 30.7737 22.5819 5.59899 
Ar 33.0024 19.0389 8.49339 
Ar 35.2549 22.5083 7.9705 
Ar 4.39179 25.5596 9.86268 
Ar 4.51862 29.4683 9.33475 
Ar 7.93246 27.7681 10.4334 
Ar 9.2179 30.9934 3.31953 
Ar 12.4131 21.8458 7.37695 
Ar 12.6582 29.2062 5.32784 
Ar 14.0732 25.6685 6.83247 
Ar 15.1958 28.9613 7.96635 
Ar 18.1602 25.8573 8.31711 
Ar 19.3926 28.8598 6.9117 
Ar 22.0267 25.5057 6.35915 
Ar 25.0975 28.4693 9.56934 
Ar 26.4145 24.9388 7.37459 
Ar 28.4259 29.0426 9.20414 
Ar 32.606 25.9709 6.56491 
Ar 30.2801 29.5518 4.872 
Ar 36.0615 26.7113 6.99317 
Ar 34.9346 31.8041 9.47316 
