216
#
Ar -1.82567 0.996948 -2.2604 
Ar 1.341 1.08092 2.21539 
Ar 1.64565 -0.375226 -1.11402 
Ar 4.73858 1.55194 1.5658 
Ar 6.92255 -1.21872 2.57282 
Ar 8.97869 1.51013 0.33313 
Ar 7.96472 0.161828 -3.97859 
Ar 12.5352 3.74604 -1.26067 
Ar 12.3512 -1.03636 -2.31557 
Ar 18.7618 1.74419 1.51855 
Ar 14.9863 1.024 -0.0753253 
Ar 21.6868 3.92436 -3.01977 
Ar 21.567 0.590755 -0.396159 
Ar 24.738 1.97359 1.15062 
Ar 27.5451 -0.247713 1.96467 
Ar 28.2625 2.93936 -0.323812 
Ar 31.0793 -0.402812 0.837178 
Ar 32.5565 3.49201 0.048712 
Ar 0.96317 7.58096 4.81594 
Ar 1.82656 10.4564 1.7729 
Ar 2.40651 6.00406 1.49512 
Ar 5.84442 12.7551 -0.148598 
Ar 6.01338 3.65004 -1.86866 
Ar 8.69724 8.87805 -2.12834 
Ar 9.57193 5.56141 -1.90913 
Ar 12.3662 11.2252 -0.526873 
Ar 12.5189 7.48874 -0.295643 
Ar 17.2368 10.2385 1.66792 
Ar 19.682 6.58773 0.19971 
Ar 20.1998 11.7841 -0.770236 
Ar 22.3127 8.76079 -3.18478 
Ar 23.9069 11.6419 1.60617 
Ar 26.4954 6.38414 2.54041 
Ar 28.1245 13.6081 -3.39999 
Ar 28.3932 9.02445 0.303574 
Ar 31.3811 12.3234 -0.657465 
Ar 1.8745 13.3967 -0.63224 
Ar 0.336471 17.9554 1.35957 
Ar 2.48099 16.9518 -1.68022 
Ar 3.67668 18.7741 2.45347 
Ar 6.35132 16.1715 1.78565 
Ar 7.83232 19.6504 0.808283 
Ar 12.0135 14.8945 0.77703 
Ar 11.2051 18.3229 -1.16615 
Ar 15.281 13.3218 1.79023 
Ar 16.2243 19.1418 -1.03385 
Ar 18.5704 14.1708 1.25547 
Ar 19.7161 17.7425 -1.1939 
Ar 21.9206 15.3957 -0.0230101 
Ar 22.3618 19.7955 0.0735311 
Ar 28.7484 15.5309 0.0242496 
Ar 26.4826 18.701 -0.685551 
Ar 27.6668 12.7541 2.21069 
Ar 30.2601 19.3377 -0.698471 
Ar -1.6691 22.6636 -1.95633 
Ar 0.674017 25.0947 0.259245 
Ar 2.85361 21.747 0.376042 
Ar 5.53366 24.8507 2.44493 
Ar 8.13004 23.2627 -0.360945 
Ar 9.41829 25.2911 2.62885 
Ar 11.1991 21.8398 1.34886 
Ar 11.9882 24.9522 -1.26366 
Ar 14.8 22.5665 -1.90677 
Ar 17.615 23.2915 0.195342 
Ar 18.7233 21.0351 -2.7742 
Ar 18.4945 28.2505 -0.596688 
Ar 21.6426 23.9698 1.68061 
Ar 21.5583 26.5756 -1.02677 
Ar 24.9636 23.1367 -0.999592 
Ar 27.0382 26.0449 0.428778 
Ar 28.0444 21.9351 0.817274 
Ar 29.6163 25.9284 -1.9135 
Ar 1.25972 1.43736 6.00453 
Ar 3.70061 4.91503 5.02782 
Ar 5.05832 1.00712 5.1138 
Ar 6.18451 4.94838 2.10237 
Ar 9.99728 4.49651 2.74481 
Ar 13.1422 6.5185 3.44183 
Ar 12.718 2.4856 2.53171 
Ar 15.833 5.10125 0.822665 
Ar 16.0577 0.534022 3.81119 
Ar 18.5275 6.96483 3.56927 
Ar 20.1385 2.6509 4.91784 
Ar 21.745 3.79726 1.20028 
Ar 24.1786 3.04764 4.77991 
Ar 26.5071 6.43202 6.804 
Ar 27.6121 3.27431 3.64147 
Ar 30.4986 5.96311 1.53698 
Ar 31.5194 3.35612 3.76898 
Ar 30.212 6.86689 5.14397 
Ar 2.85658 6.01539 8.21634 
Ar 3.09432 10.7047 5.13205 
Ar 5.50414 9.53276 2.47121 
Ar 9.17055 12.9131 1.76526 
Ar 9.32211 8.48879 2.00341 
Ar 11.0746 14.0795 4.78127 
Ar 12.6418 10.5255 3.15744 
Ar 16.2673 11.7084 5.14058 
Ar 15.6937 8.02419 5.89363 
Ar 17.5808 14.7646 4.56536 
Ar 20.7572 9.75427 2.51433 
Ar 23.6232 8.23015 0.84867 
Ar 24.0249 8.90975 4.39604 
Ar 25.6082 12.5475 5.10604 
Ar 27.4606 9.25345 4.47069 
Ar 30.11 12.3704 5.06873 
Ar 31.2503 9.8256 2.24153 
Ar 32.7523 13.742 2.71808 
Ar -0.413537 16.1018 5.58853 
Ar -0.213919 19.3016 4.61895 
Ar 3.59164 14.0237 3.01195 
Ar 6.85273 18.5045 4.72328 
Ar 9.81253 17.0435 2.75042 
Ar 10.8889 19.9131 4.50526 
Ar 14.1682 16.0255 4.21013 
Ar 14.97 21.3383 1.83376 
Ar 16.1815 18.3285 2.37448 
Ar 18.4127 21.0818 2.89051 
Ar 20.976 17.0569 3.20969 
Ar 21.7327 20.2886 4.0134 
Ar 21.9841 13.5109 3.93606 
Ar 24.8281 21.8214 2.3321 
Ar 25.3717 15.4928 0.939912 
Ar 27.6708 19.7807 3.81715 
Ar 30.2092 17.4619 3.08262 
Ar 32.4704 21.4746 1.42126 
Ar 1.29618 24.1487 4.17965 
Ar 3.25855 27.4825 2.86745 
Ar 4.54531 20.9438 6.28814 
Ar 6.83658 26.1298 6.33364 
Ar 7.76274 22.0932 4.14096 
Ar 11.9269 28.3144 1.48925 
Ar 10.2616 26.6077 6.11418 
Ar 15.5606 26.8595 0.834982 
Ar 16.9307 25.4154 3.60786 
Ar 19.3769 28.1928 3.26754 
Ar 20.5027 23.8564 5.29354 
Ar 22.9732 28.7393 3.65337 
Ar 24.6868 25.5231 3.27494 
Ar 26.0413 29.3719 5.52165 
Ar 27.4439 23.6118 5.03524 
Ar 28.5954 27.1391 4.55192 
Ar 30.2794 25.2247 1.84279 
Ar 32.7346 27.192 3.41043 
Ar 5.70637 8.05328 10.1499 
Ar 6.27933 7.29798 6.39619 
Ar 7.52996 3.97051 5.57837 
Ar 9.88046 6.6753 5.53794 
Ar 10.7462 2.93741 6.6938 
Ar 13.032 6.18502 7.30285 
Ar 14.4057 2.84527 6.64178 
Ar 16.3881 9.19555 9.36176 
Ar 18.2393 3.24731 9.07907 
Ar 18.8765 6.61393 7.81037 
Ar 22.5252 0.550948 7.07042 
Ar 21.929 6.23512 5.09396 
Ar 25.4518 2.95198 8.25513 
Ar 29.6045 6.67601 8.75793 
Ar 29.2967 3.39895 6.64629 
Ar 32.8231 7.52038 9.82046 
Ar 32.7746 4.56969 7.31706 
Ar 35.6244 10.0641 9.16835 
Ar 5.89083 11.0589 7.16723 
Ar 7.59415 14.7121 5.20149 
Ar 8.93932 10.7123 4.773 
Ar 9.01532 12.7789 8.02443 
Ar 12.0766 9.71762 7.14445 
Ar 13.1186 14.0531 7.92771 
Ar 16.2263 12.8549 9.29433 
Ar 16.4036 16.1226 8.16582 
Ar 19.6718 10.9613 5.79706 
Ar 19.866 14.5669 7.50495 
Ar 23.13 12.7516 7.97315 
Ar 25.556 16.1095 8.00181 
Ar 26.2332 10.1543 8.15156 
Ar 27.4108 15.632 4.4131 
Ar 30.1877 9.78067 7.49874 
Ar 32.0565 15.8721 9.2061 
Ar 33.4411 12.8716 6.68523 
Ar 37.3128 14.1785 7.28167 
Ar 3.44465 17.5116 5.76131 
Ar 5.10104 19.3358 9.84296 
Ar 7.26662 15.7844 9.19866 
Ar 8.83527 20.2984 8.0152 
Ar 10.2053 16.7837 6.61653 
Ar 13.0657 24.7693 2.26911 
Ar 14.0442 18.7353 6.40647 
Ar 15.7009 22.0866 5.49572 
Ar 19.0579 18.0224 5.98284 
Ar 21.6041 23.3616 8.76002 
Ar 23.0786 19.069 7.39088 
Ar 24.4626 22.2261 6.63704 
Ar 24.2821 17.5781 4.41308 
Ar 27.9673 21.5725 7.76045 
Ar 29.0939 18.0546 6.8264 
Ar 31.0797 22.4303 4.6677 
Ar 33.7653 19.9589 8.05036 
Ar 35.1168 23.2596 7.59899 
Ar 4.60208 25.5337 9.9776 
Ar 5.68121 29.4221 9.56608 
Ar 8.98238 27.0949 9.98992 
Ar 9.79911 29.8523 3.94239 
Ar 11.7202 22.5186 6.89191 
Ar 13.3679 28.1028 5.23748 
Ar 14.2762 25.2563 6.81089 
Ar 16.3722 28.2669 7.6532 
Ar 17.6633 24.896 8.04255 
Ar 19.9137 27.7934 6.73487 
Ar 23.1162 26.1312 6.2536 
Ar 24.9385 28.753 9.81054 
Ar 26.2758 26.5199 7.73617 
Ar 28.0978 29.4114 8.39273 
Ar 31.7518 25.7158 6.47089 
Ar 31.0281 29.4893 5.49386 
Ar 35.9522 26.8702 6.7381 
Ar 35.7483 32.3105 9.74071 
