216
#
Ar -0.715657 0.589506 -2.084 
Ar 1.08444 1.44788 2.24261 
Ar 1.62738 -1.3427 -0.585096 
Ar 4.64259 2.05121 1.65652 
Ar 6.61229 -1.11049 2.93291 
Ar 7.79392 2.1558 0.143533 
Ar 8.7333 0.856902 -3.25374 
Ar 12.1254 3.04569 -0.986564 
Ar 11.458 -0.611362 -2.34351 
Ar 18.6116 2.23601 1.6904 
Ar 15.5786 0.372857 0.591017 
Ar 21.6891 4.08729 -3.3264 
Ar 21.23 1.43588 -0.61322 
Ar 25.2066 2.78678 1.20491 
Ar 27.4695 -0.61204 1.56207 
Ar 28.5943 2.79011 0.0565433 
Ar 30.8913 0.46134 1.36216 
Ar 32.3516 4.04467 0.0480017 
Ar 0.0278399 7.85255 4.69654 
Ar 2.05479 9.29174 0.9521 
Ar 2.22696 5.50888 1.78467 
Ar 6.15553 12.8531 -0.549241 
Ar 5.62001 4.4254 -1.54594 
Ar 10.2206 9.93063 -2.32627 
Ar 9.46109 5.70452 -2.20431 
Ar 12.9133 11.2944 -0.0913687 
Ar 12.0833 7.19532 -0.31025 
Ar 17.0119 9.51621 1.43167 
Ar 19.8271 7.76866 -0.495777 
Ar 20.6462 10.9175 -1.28641 
Ar 22.8352 8.21675 -3.39566 
Ar 23.6305 12.2877 0.872357 
Ar 27.2026 6.56413 2.45961 
Ar 28.6662 13.4723 -2.86918 
Ar 28.4295 9.04116 -0.139321 
Ar 31.6036 12.289 0.119222 
Ar 2.21602 13.2978 -0.0472439 
Ar 1.0295 18.196 0.906695 
Ar 2.58958 16.5217 -2.2483 
Ar 4.89996 19.2502 2.59947 
Ar 5.80946 15.6991 1.36183 
Ar 8.00455 19.8274 0.780457 
Ar 12.4825 15.3519 0.570817 
Ar 11.8911 18.5859 -1.15387 
Ar 15.4684 13.242 1.91041 
Ar 15.6454 19.3323 -1.1363 
Ar 18.8963 13.8903 0.984245 
Ar 19.461 18.0817 -0.529204 
Ar 22.4327 15.2375 -0.450628 
Ar 22.3785 19.0777 1.26824 
Ar 27.7874 16.0342 -0.188137 
Ar 25.9094 19.3201 0.00131721 
Ar 27.6084 12.8202 1.09743 
Ar 29.866 19.2862 -0.446783 
Ar -1.6067 22.3013 -1.71392 
Ar 0.822298 24.265 -0.0816879 
Ar 3.62913 22.1204 0.320107 
Ar 5.53788 24.4472 2.52497 
Ar 7.93389 24.1047 -0.645249 
Ar 9.38342 26.2874 2.59405 
Ar 11.1985 22.0327 0.32588 
Ar 11.49 25.1478 -1.62749 
Ar 15.3468 22.9434 -1.72144 
Ar 18.1221 23.8659 0.847465 
Ar 18.2775 21.4049 -2.65106 
Ar 18.6572 27.8431 0.0612539 
Ar 21.4775 24.4245 1.96732 
Ar 22.055 26.7218 -1.05116 
Ar 24.9878 22.6523 -1.27988 
Ar 27.2028 25.4014 0.234551 
Ar 28.4751 21.9196 1.08796 
Ar 30.0909 25.7352 -1.9755 
Ar 1.39887 0.550271 5.93239 
Ar 3.01662 4.12797 6.29941 
Ar 5.24656 0.472847 5.66393 
Ar 6.26879 6.21693 1.80857 
Ar 10.1013 4.96526 2.18166 
Ar 13.2959 6.23166 2.79625 
Ar 13.2751 2.78831 2.59346 
Ar 16.1734 5.10196 0.520053 
Ar 16.6565 -0.612641 4.33654 
Ar 18.2539 6.25698 3.34015 
Ar 19.0183 3.00265 5.31471 
Ar 21.3662 4.16463 2.18569 
Ar 24.1959 3.52641 4.94701 
Ar 25.9257 6.10461 6.69911 
Ar 28.051 3.20506 3.43605 
Ar 30.7912 6.87664 1.54345 
Ar 31.8162 3.24002 4.17829 
Ar 29.5049 6.03419 5.1723 
Ar 2.94659 6.82724 8.93847 
Ar 3.44825 10.0218 4.80498 
Ar 6.61221 11.8582 2.8452 
Ar 9.40208 12.8575 0.748663 
Ar 8.91399 8.32112 1.27906 
Ar 11.0883 13.3069 4.18599 
Ar 12.4664 9.5288 3.20291 
Ar 16.2443 11.048 4.72188 
Ar 15.339 7.48341 5.25503 
Ar 17.9522 14.2324 4.86299 
Ar 20.7472 9.82375 2.51842 
Ar 24.2457 7.35823 -0.330112 
Ar 24.2152 9.36361 4.06152 
Ar 25.6884 12.4114 4.56793 
Ar 28.6732 9.29184 4.8303 
Ar 29.6122 13.2384 4.31276 
Ar 31.3192 10.4512 3.01291 
Ar 33.7487 13.1408 3.06364 
Ar -0.946953 15.87 5.34619 
Ar 0.134553 19.95 4.82445 
Ar 3.79946 14.0233 3.76099 
Ar 7.34562 18.3261 5.26442 
Ar 9.55115 16.4958 2.39186 
Ar 10.7186 19.3856 4.41397 
Ar 13.7928 15.7833 4.82215 
Ar 14.8796 21.8148 2.25281 
Ar 16.548 17.3266 1.42338 
Ar 18.4897 20.2912 2.72668 
Ar 20.5628 17.1678 3.06019 
Ar 21.6647 20.4876 4.51385 
Ar 21.6963 13.8264 4.25415 
Ar 24.5551 21.9153 2.31932 
Ar 24.7479 15.8265 1.82231 
Ar 27.6588 19.1797 4.75127 
Ar 30.6495 17.0838 2.2298 
Ar 32.2049 21.3159 1.83097 
Ar 2.35385 23.6104 4.48214 
Ar 3.27059 27.3068 2.57245 
Ar 4.6537 21.1853 5.78403 
Ar 6.43817 26.2108 5.75149 
Ar 8.1801 21.888 4.67262 
Ar 12.2291 28.6133 1.30077 
Ar 10.3559 26.5115 6.27319 
Ar 14.6909 26.1975 -0.310331 
Ar 16.7582 25.154 3.85041 
Ar 20.1171 27.1934 3.51082 
Ar 19.54 23.2971 5.27592 
Ar 23.1205 29.1595 2.73588 
Ar 24.7741 25.8994 3.15897 
Ar 26.3567 29.6841 5.13688 
Ar 27.3305 23.2269 4.00173 
Ar 28.2658 26.3091 4.80061 
Ar 30.6565 25.1277 1.60473 
Ar 32.8494 27.2405 3.22279 
Ar 5.51844 9.40339 11.2667 
Ar 5.98596 7.19028 6.70635 
Ar 7.24574 3.68107 6.08571 
Ar 10.4615 7.2288 5.6781 
Ar 11.5749 3.49146 5.86117 
Ar 13.2288 5.94003 7.64628 
Ar 15.4346 3.02228 6.1425 
Ar 15.125 8.24764 9.23718 
Ar 17.8023 2.49372 8.47418 
Ar 18.592 6.0152 7.131 
Ar 22.6008 0.336646 6.75306 
Ar 21.7759 7.01561 4.55043 
Ar 25.1867 3.0145 8.76922 
Ar 29.0995 6.08729 9.16254 
Ar 28.4467 2.79401 6.98221 
Ar 32.5814 8.42114 9.66771 
Ar 32.8099 5.53286 7.37413 
Ar 35.882 10.3235 8.51777 
Ar 6.18994 10.8067 7.59184 
Ar 7.54973 14.5841 4.84504 
Ar 8.72804 10.6308 5.15311 
Ar 8.95852 13.7061 7.92352 
Ar 13.359 10.2552 6.83745 
Ar 13.2668 14.1237 7.84708 
Ar 16.6411 12.0299 9.2049 
Ar 16.5361 15.5937 8.21524 
Ar 19.7047 11.1316 6.04403 
Ar 20.1958 14.9457 7.63441 
Ar 23.31 12.8697 7.68283 
Ar 25.1192 16.4045 8.03225 
Ar 26.2181 10.3422 8.4273 
Ar 27.2661 15.9153 4.34819 
Ar 30.4871 10.5811 7.87493 
Ar 31.5355 15.5034 9.45913 
Ar 33.299 13.0289 7.00154 
Ar 37.4123 13.6572 7.39415 
Ar 2.50623 17.1573 4.95189 
Ar 5.1364 19.374 9.44425 
Ar 7.2099 16.7232 8.93309 
Ar 8.57454 20.3213 8.09708 
Ar 10.563 16.7445 6.63217 
Ar 12.8176 24.4127 3.32878 
Ar 14.4142 18.831 6.17639 
Ar 15.8937 22.2132 5.39898 
Ar 19.0441 18.4574 6.33102 
Ar 21.2747 23.0224 9.15399 
Ar 22.8407 19.072 8.47891 
Ar 23.9436 22.1482 6.52478 
Ar 24.0852 17.7423 4.53455 
Ar 28.165 21.6615 7.92737 
Ar 29.0801 17.0467 7.16878 
Ar 30.6481 22.7259 5.50762 
Ar 33.363 19.2385 8.52534 
Ar 34.8563 22.56 8.02464 
Ar 4.52675 25.6609 10.1695 
Ar 4.87527 29.2445 9.18135 
Ar 7.52441 27.5889 10.5321 
Ar 9.2687 30.6405 3.49226 
Ar 12.4812 21.6706 6.97687 
Ar 12.5838 29.2028 5.06095 
Ar 13.705 25.3126 6.54016 
Ar 15.481 28.8934 8.03051 
Ar 18.1794 25.3177 8.20301 
Ar 19.1379 29.1732 7.08176 
Ar 22.0476 25.6815 5.86671 
Ar 25.1098 28.5903 9.77707 
Ar 26.3783 24.8538 7.11821 
Ar 28.7239 29.1043 8.9056 
Ar 32.5457 25.7304 6.41841 
Ar 29.952 29.3964 4.58151 
Ar 35.9174 26.9243 6.7504 
Ar 35.2401 32.1138 9.3608 
