216
#
Ar -1.86909 1.76218 -2.74926 
Ar 1.3899 1.35426 2.06478 
Ar -0.424768 -1.37362 -0.770839 
Ar 4.9828 2.6506 1.2945 
Ar 6.78953 -1.45788 2.1648 
Ar 8.47681 2.87706 -0.799832 
Ar 8.28809 0.561263 -4.54922 
Ar 11.8983 2.64796 0.20823 
Ar 12.3098 -0.411285 -2.53524 
Ar 18.3616 1.60488 2.00317 
Ar 15.3004 0.851651 -0.126622 
Ar 22.0894 5.08658 -2.20902 
Ar 21.67 1.45867 -1.51733 
Ar 24.673 3.11594 1.57559 
Ar 26.5236 0.118259 2.08797 
Ar 28.2943 2.37913 -0.573981 
Ar 29.8585 -0.0858609 1.30849 
Ar 31.5412 3.63049 0.469892 
Ar 3.03727 8.33993 5.34993 
Ar 1.92509 8.99054 2.02068 
Ar 1.85595 4.95687 2.47714 
Ar 6.58574 13.5865 -0.565592 
Ar 5.82863 4.61354 -2.48079 
Ar 10.1403 9.31893 -2.56069 
Ar 8.98866 6.05699 -2.17122 
Ar 14.2801 11.0749 -1.51083 
Ar 12.3036 7.45811 -0.420316 
Ar 16.2748 8.30109 1.10097 
Ar 19.0577 6.80172 -0.232502 
Ar 21.1378 12.0851 -1.11454 
Ar 22.8392 8.92148 -2.85609 
Ar 24.633 11.356 -0.0876961 
Ar 26.1056 6.08023 2.54031 
Ar 28.4604 13.2361 -2.749 
Ar 27.4486 9.05984 0.401212 
Ar 31.3509 11.8105 -0.0304842 
Ar 2.60815 12.7099 0.0102218 
Ar 2.17333 17.7114 1.9397 
Ar 3.84604 15.7883 -1.93362 
Ar 5.51957 20.5869 2.5226 
Ar 5.74556 16.8738 1.33329 
Ar 8.42311 18.8811 0.28392 
Ar 13.3135 15.6151 1.11705 
Ar 11.548 17.4957 -1.39039 
Ar 16.5385 13.1188 1.01631 
Ar 14.4907 19.0027 -1.06451 
Ar 19.6658 14.5834 1.38318 
Ar 19.3059 17.609 -1.59056 
Ar 22.7069 15.8349 -1.29894 
Ar 22.5276 18.8617 2.07532 
Ar 27.3551 15.5517 -0.270504 
Ar 25.5692 18.9492 -0.26184 
Ar 27.9398 12.721 1.89039 
Ar 30.4357 19.0151 0.16792 
Ar -1.82581 21.7677 -1.6767 
Ar -0.0527263 24.5062 -0.049375 
Ar 3.00961 22.3564 0.344582 
Ar 5.57913 24.3927 2.60254 
Ar 7.52048 22.6042 -0.348681 
Ar 9.53021 25.2234 2.2411 
Ar 10.9281 21.2484 -0.498396 
Ar 11.5864 25.421 -1.17778 
Ar 14.3962 22.9053 -1.34171 
Ar 17.6981 24.1478 0.869754 
Ar 17.7134 21.2696 -2.24629 
Ar 18.0998 27.7371 0.729176 
Ar 21.7937 24.4345 2.64962 
Ar 21.5637 27.1415 -0.139552 
Ar 23.9156 23.1306 0.312054 
Ar 26.1447 26.0864 0.654356 
Ar 28.0034 22.2811 0.451525 
Ar 28.8859 24.3337 -2.33541 
Ar 0.849697 1.22018 5.84284 
Ar 3.6595 4.5244 5.83111 
Ar 4.62752 0.66231 5.61572 
Ar 4.83816 7.14967 2.41834 
Ar 8.75097 5.26319 1.99617 
Ar 12.3091 5.62102 3.0639 
Ar 14.9614 2.64091 2.93213 
Ar 15.4151 5.24441 -0.113986 
Ar 16.4958 -0.99683 4.08851 
Ar 17.5624 5.17476 2.37944 
Ar 21.0431 3.20206 5.75173 
Ar 21.537 4.15898 1.19931 
Ar 24.4898 3.80545 5.36762 
Ar 25.1754 7.40212 5.85674 
Ar 28.4292 3.20434 2.78719 
Ar 30.1417 6.41499 2.30081 
Ar 31.8516 4.04223 4.57641 
Ar 30.1608 7.08301 5.80087 
Ar 2.47625 5.99231 8.89722 
Ar 5.23291 10.4086 3.77294 
Ar 8.28161 12.4586 2.45917 
Ar 10.8888 11.5099 0.344068 
Ar 8.03534 9.0377 0.50798 
Ar 11.3504 13.0524 3.95639 
Ar 13.4642 10.2998 2.48598 
Ar 16.9934 9.95797 5.41632 
Ar 15.6767 6.63781 5.26439 
Ar 17.9839 13.3864 4.65291 
Ar 19.3455 10.4177 1.6737 
Ar 24.9502 6.52068 -0.62093 
Ar 23.6378 9.50374 2.9128 
Ar 26.3716 13.2798 5.2526 
Ar 27.0315 9.99806 4.27807 
Ar 30.1861 13.4386 4.6243 
Ar 31.3641 9.8625 3.9381 
Ar 34.1777 14.2366 4.4078 
Ar -0.496953 17.2669 6.0108 
Ar 1.50143 20.171 5.29002 
Ar 4.36724 13.9915 3.09656 
Ar 7.55998 18.0814 4.19037 
Ar 9.50236 15.5352 1.18569 
Ar 10.9042 19.4914 3.18057 
Ar 14.3327 15.3275 4.45004 
Ar 14.7652 20.0148 3.05987 
Ar 16.9423 16.8449 2.0175 
Ar 18.939 20.3256 1.34468 
Ar 20.1617 16.8966 4.69359 
Ar 20.1907 20.8212 5.44594 
Ar 22.4792 12.8841 3.02248 
Ar 25.8054 19.9556 3.82137 
Ar 24.7817 15.4922 2.13456 
Ar 29.6656 20.2802 3.6267 
Ar 31.128 16.1387 2.42225 
Ar 33.4473 21.1234 1.83927 
Ar 2.11422 24.1126 4.25867 
Ar 3.46928 27.3161 3.6429 
Ar 4.97187 22.1893 6.10436 
Ar 6.58442 25.3567 8.0478 
Ar 8.81443 22.6906 4.84073 
Ar 11.8626 27.8273 1.62375 
Ar 9.78782 26.8999 6.50854 
Ar 15.0375 26.6758 -0.781228 
Ar 15.781 24.7926 4.15741 
Ar 20.0867 28.1272 4.14766 
Ar 19.2471 24.9213 5.49328 
Ar 22.602 29.6529 2.00482 
Ar 24.5784 26.6543 3.89667 
Ar 26.8694 30.4019 5.40577 
Ar 27.024 23.4989 4.27655 
Ar 28.8459 26.501 5.18133 
Ar 29.6935 25.6729 0.975246 
Ar 31.8232 27.1346 3.41277 
Ar 4.44474 9.88548 10.4537 
Ar 6.10469 7.38899 6.26825 
Ar 7.13614 4.11175 5.09776 
Ar 10.8676 6.85566 5.90199 
Ar 10.9058 3.37716 5.90784 
Ar 13.2918 4.99448 8.1347 
Ar 17.3793 2.88174 6.07428 
Ar 16.0683 8.08708 8.38557 
Ar 18.353 3.2809 9.69304 
Ar 18.9179 6.2194 7.17093 
Ar 23.3609 0.114626 5.83916 
Ar 20.6563 6.95436 3.7242 
Ar 25.1955 2.90473 8.66585 
Ar 28.8591 5.79815 9.63856 
Ar 28.6655 3.90619 6.48642 
Ar 31.8531 8.07593 10.3641 
Ar 31.9606 5.11395 8.2024 
Ar 34.5459 9.85344 8.32711 
Ar 6.68089 10.5507 7.64131 
Ar 6.94321 14.5812 5.79006 
Ar 8.917 9.80381 4.91037 
Ar 9.58385 12.5338 7.47554 
Ar 12.8685 10.0587 6.19204 
Ar 13.0214 13.58 7.5762 
Ar 17.6887 11.5148 8.95398 
Ar 16.4633 15.4066 9.05205 
Ar 20.6556 10.6066 5.44233 
Ar 20.3608 14.3829 7.07031 
Ar 23.5387 12.8537 7.56331 
Ar 25.7515 15.9024 7.2689 
Ar 26.3335 10.3148 8.23353 
Ar 27.7734 17.2719 3.68016 
Ar 30.3583 10.4784 7.82122 
Ar 31.6122 15.6324 9.62066 
Ar 33.4289 13.4123 7.76378 
Ar 37.0234 12.6143 6.86485 
Ar 4.35309 16.9306 5.57016 
Ar 4.88398 19.2683 8.48208 
Ar 8.40692 16.1926 8.7854 
Ar 8.89103 20.2537 7.70268 
Ar 10.6407 16.0991 4.81749 
Ar 12.2786 23.448 3.66255 
Ar 13.6322 18.1975 6.35716 
Ar 15.4577 22.3363 6.30568 
Ar 17.0536 17.5046 5.86574 
Ar 20.147 23.6472 9.16064 
Ar 21.9751 20.1369 8.88484 
Ar 23.4684 22.9016 6.89318 
Ar 23.3986 18.192 5.84454 
Ar 27.1692 21.4093 7.94163 
Ar 29.0816 18.2942 7.16443 
Ar 31.3584 23.4712 4.07798 
Ar 34.0184 19.3058 9.05245 
Ar 34.9757 23.8901 7.76025 
Ar 4.03954 26.0175 11.1008 
Ar 5.38421 29.5268 9.49789 
Ar 9.1409 28.247 10.2492 
Ar 8.88887 31.0078 2.6264 
Ar 11.8823 21.356 6.55316 
Ar 13.0046 29.1716 4.48492 
Ar 13.9478 25.6321 6.80516 
Ar 15.5209 29.5313 7.32038 
Ar 17.1831 24.9192 8.14451 
Ar 18.905 28.4426 8.03257 
Ar 21.8131 26.2722 7.47934 
Ar 24.8846 28.79 9.81362 
Ar 26.0275 26.4175 7.48993 
Ar 28.669 28.5714 8.57163 
Ar 32.5633 26.2903 6.90364 
Ar 30.2917 29.7283 5.14138 
Ar 35.7853 27.5128 7.80477 
Ar 35.0786 31.2734 9.293 
