216
#
Ar 0.514608 -0.246955 -1.05012 
Ar 2.17373 3.00816 1.32353 
Ar 3.96514 -1.0368 0.133511 
Ar 5.82764 2.24574 0.0849588 
Ar 7.96134 -0.373714 1.29231 
Ar 8.92412 2.27617 -1.4354 
Ar 11.8835 -1.89671 -2.26214 
Ar 12.5166 4.42448 -0.867491 
Ar 13.6 0.346491 0.236188 
Ar 17.0598 4.3509 0.125534 
Ar 17.381 0.114723 -0.0471252 
Ar 21.6225 4.77036 -0.0575287 
Ar 21.3205 0.281598 0.505233 
Ar 24.5773 3.43316 1.07377 
Ar 26.4709 0.498098 0.0313855 
Ar 28.5464 3.47419 0.00865142 
Ar 29.9695 0.182598 0.720817 
Ar 32.223 3.1198 -0.894235 
Ar 0.205442 6.24818 1.1088 
Ar 1.54705 12.5976 0.206209 
Ar 4.02729 6.31905 1.05649 
Ar 5.21832 9.62187 1.00804 
Ar 6.93852 5.43825 -0.943481 
Ar 8.91945 11.8461 -0.339433 
Ar 9.57527 7.86744 -0.273821 
Ar 12.469 11.8694 0.924702 
Ar 13.1628 8.09068 -1.02829 
Ar 16.1646 9.98229 -0.107223 
Ar 18.9971 7.68323 -0.0663701 
Ar 19.6876 11.116 -0.115208 
Ar 22.709 8.53277 -0.875401 
Ar 22.8123 12.403 -1.28938 
Ar 25.8821 6.60716 0.230361 
Ar 27.154 12.072 -1.03847 
Ar 28.9188 8.69041 0.293611 
Ar 31.1469 12.0161 -1.16146 
Ar -0.391239 15.5033 -0.157354 
Ar 1.23742 18.6596 -0.203883 
Ar 3.28228 15.5922 -0.855769 
Ar 5.20989 18.7027 0.348235 
Ar 7.57782 15.4465 -1.02041 
Ar 9.16778 19.0437 0.56668 
Ar 10.5663 15.1588 1.15223 
Ar 12.8581 17.9434 1.17101 
Ar 15.0611 14.0367 0.457236 
Ar 16.3356 18.3994 -1.38911 
Ar 18.5045 15.6858 -0.233283 
Ar 19.7568 19.0185 0.495875 
Ar 22.0182 15.5351 0.495065 
Ar 24.1106 19.2478 1.24228 
Ar 26.3968 15.8602 -0.18996 
Ar 26.5764 19.7035 -1.06185 
Ar 29.7025 14.6535 1.23724 
Ar 29.8252 18.3871 0.944016 
Ar -1.06202 22.4627 -1.18852 
Ar 1.62783 25.7684 0.0695725 
Ar 2.4289 21.8007 -0.475852 
Ar 5.08414 24.5674 0.632066 
Ar 6.95543 21.694 0.482587 
Ar 8.05302 25.5201 -0.527989 
Ar 10.7555 22.5238 1.10803 
Ar 13.1954 25.3327 1.03681 
Ar 14.041 21.2883 -0.188113 
Ar 16.5156 25.7277 -0.0722852 
Ar 17.6181 21.9011 -0.353469 
Ar 19.6317 26.2935 -0.964305 
Ar 21.8386 22.8045 0.375909 
Ar 23.0898 26.2819 0.782757 
Ar 25.177 23.1059 -0.79455 
Ar 27.3499 26.0531 0.27313 
Ar 29.0407 22.7697 1.05499 
Ar 31.0013 26.0688 -0.539378 
Ar 1.60591 0.540517 4.28777 
Ar 4.0254 3.85565 4.83721 
Ar 5.36009 0.579783 4.28847 
Ar 6.96389 5.08423 3.76987 
Ar 9.65076 2.18048 3.71017 
Ar 10.7674 5.72884 3.59745 
Ar 13.2138 3.05233 3.46487 
Ar 14.395 6.31235 2.4418 
Ar 16.5056 1.99045 3.31771 
Ar 18.5147 5.63551 4.40322 
Ar 20.3837 2.27408 3.48891 
Ar 22.7642 5.5044 3.49385 
Ar 24.0424 2.3937 4.58343 
Ar 26.1208 5.29281 4.50155 
Ar 28.0895 2.00191 3.6267 
Ar 29.5857 5.86239 2.42571 
Ar 31.7125 3.05407 2.68544 
Ar 31.1093 7.54949 5.42057 
Ar 1.29374 8.77728 3.92261 
Ar 3.17698 11.7256 4.00673 
Ar 5.99317 8.401 4.08108 
Ar 7.75386 12.9593 2.73695 
Ar 9.68842 9.11924 4.0223 
Ar 10.9951 12.521 4.23585 
Ar 13.5323 9.54522 3.35361 
Ar 14.8272 12.9723 3.99694 
Ar 17.2024 9.05488 3.76398 
Ar 18.3153 12.4633 3.78643 
Ar 20.8833 9.0468 2.82118 
Ar 21.6868 12.7666 2.48982 
Ar 25.1071 10.7138 2.58883 
Ar 27.0524 13.7333 3.11643 
Ar 28.2032 8.85254 3.98856 
Ar 29.7532 12.3544 4.93661 
Ar 31.5123 10.2019 2.35295 
Ar 32.6589 13.681 3.38751 
Ar 1.25762 16.7961 3.26284 
Ar 3.12793 20.0289 2.84973 
Ar 4.75872 15.0965 2.72819 
Ar 6.52765 18.8482 3.91284 
Ar 8.44632 15.7604 4.2455 
Ar 10.3498 19.113 4.27148 
Ar 12.443 15.8288 4.9351 
Ar 14.0681 20.5079 3.52051 
Ar 16.1666 16.596 3.05225 
Ar 18.2903 20.9326 3.23825 
Ar 20.0315 16.1936 3.73903 
Ar 21.8298 20.007 4.37945 
Ar 23.6259 15.7766 4.76457 
Ar 25.9015 22.1275 2.45824 
Ar 26.5413 17.3061 3.02161 
Ar 28.6974 19.9314 4.49601 
Ar 30.4305 16.7047 4.46517 
Ar 32.3949 20.7754 2.46145 
Ar 1.68659 23.4484 3.40719 
Ar 3.58136 26.7691 3.47893 
Ar 4.67946 23.0651 4.75754 
Ar 7.53898 25.9319 3.4509 
Ar 8.16703 22.5498 3.70951 
Ar 11.0807 27.9277 2.58159 
Ar 11.5255 25.191 4.76255 
Ar 15.9369 27.6696 3.09804 
Ar 15.4657 23.7872 4.04345 
Ar 19.296 26.9579 2.68011 
Ar 21.4523 23.7534 4.23622 
Ar 22.4708 28.2107 4.26691 
Ar 24.6361 25.0671 4.11474 
Ar 26.1261 28.4376 5.42993 
Ar 27.8684 23.8324 4.67785 
Ar 28.7164 27.1228 3.33122 
Ar 31.1134 24.6202 3.49159 
Ar 32.7528 27.588 2.39122 
Ar 3.6087 4.11025 8.5873 
Ar 5.27758 7.2751 7.40954 
Ar 7.00009 2.73944 6.66731 
Ar 9.01551 6.58456 7.20121 
Ar 11.6531 3.22193 6.41446 
Ar 12.3994 7.37005 6.09706 
Ar 15.0069 5.20602 7.54431 
Ar 16.1602 8.68396 7.02279 
Ar 18.2438 3.79535 7.43499 
Ar 19.7139 7.13073 7.47892 
Ar 21.8185 2.05931 8.21146 
Ar 23.4933 6.57374 7.28206 
Ar 25.6106 3.16181 8.67112 
Ar 27.291 6.69341 7.98103 
Ar 29.8466 3.35372 6.85034 
Ar 30.7571 6.48732 9.04433 
Ar 33.6917 2.72107 6.68433 
Ar 34.3698 7.9337 9.02466 
Ar 3.69728 10.876 7.84015 
Ar 5.55809 14.0145 6.56556 
Ar 7.45326 11.0264 6.67165 
Ar 9.80128 14.0522 7.44415 
Ar 10.6075 10.025 7.87156 
Ar 13.1743 15.6659 8.90863 
Ar 14.0895 11.6011 8.32486 
Ar 17.4846 15.3239 5.95321 
Ar 18.0862 11.8378 7.46425 
Ar 20.6864 15.2488 7.46953 
Ar 21.3577 10.7457 5.8949 
Ar 24.4161 14.9397 8.14464 
Ar 25.182 10.4142 6.81772 
Ar 27.8559 15.4242 7.56477 
Ar 29.368 9.50788 7.4699 
Ar 31.2785 14.9371 7.48102 
Ar 33.1024 10.7604 6.96973 
Ar 34.5973 14.3319 6.49702 
Ar 3.75976 17.2862 6.50462 
Ar 5.42802 22.2766 8.21983 
Ar 7.11026 18.2578 7.84915 
Ar 8.93348 21.3227 6.81006 
Ar 10.5827 17.6899 7.7267 
Ar 12.7412 21.1515 7.21412 
Ar 15.0765 17.9885 6.16795 
Ar 16.4004 21.3568 7.29881 
Ar 19.2266 18.5095 6.58257 
Ar 20.393 21.7224 8.15408 
Ar 22.7615 18.6975 8.21676 
Ar 24.6858 21.8263 6.05657 
Ar 26.0411 18.2639 6.30474 
Ar 28.3835 22.3841 7.92528 
Ar 29.9647 19.2127 7.8094 
Ar 31.6057 21.7005 6.06363 
Ar 33.417 17.7177 7.5064 
Ar 35.1601 20.7973 6.48571 
Ar 4.65953 26.2752 8.07815 
Ar 6.78549 29.1372 8.66226 
Ar 8.1193 25.4723 6.94069 
Ar 9.08881 28.861 5.6737 
Ar 10.9728 24.1211 8.7477 
Ar 12.9717 29.2401 5.07063 
Ar 14.5366 24.6349 7.96377 
Ar 16.1537 30.2808 6.99062 
Ar 18.2382 24.9312 6.92866 
Ar 19.8081 28.5756 7.65489 
Ar 21.9303 24.891 8.0322 
Ar 24.1138 27.9557 8.59614 
Ar 26.0132 25.179 7.47956 
Ar 28.8668 29.7289 8.14649 
Ar 30.0044 25.4634 7.16026 
Ar 30.9405 29.5155 5.24399 
Ar 33.6972 26.4689 5.64812 
Ar 36.3289 29.8033 7.53205 
