216
#
Ar -1.47597 1.63198 -2.43489 
Ar 1.20811 1.13358 2.17038 
Ar -0.132594 -1.50763 -1.07182 
Ar 5.04585 2.31991 1.87765 
Ar 6.32582 -1.51264 2.15274 
Ar 8.04925 2.66126 -0.657006 
Ar 8.55035 0.974631 -4.28961 
Ar 11.9346 2.76221 -0.476643 
Ar 12.0342 -0.386948 -2.32104 
Ar 18.4868 1.88286 2.28322 
Ar 15.3329 1.12112 -0.0740161 
Ar 21.9494 5.21545 -2.75963 
Ar 21.652 1.35206 -1.20584 
Ar 24.9248 3.37952 1.55045 
Ar 26.7698 -0.0553464 1.7922 
Ar 28.3239 2.71837 -0.431862 
Ar 30.3892 0.0939522 1.22373 
Ar 32.0264 3.40398 0.848228 
Ar 1.92276 7.76885 5.21337 
Ar 1.31631 9.79967 1.7909 
Ar 1.86535 5.0184 2.3557 
Ar 6.56976 13.4481 -0.659306 
Ar 5.22138 4.45579 -2.18108 
Ar 10.1569 9.46983 -2.34331 
Ar 8.72215 5.9857 -2.46896 
Ar 13.9596 10.6028 -0.644646 
Ar 12.2048 7.53964 0.013993 
Ar 16.7193 8.74526 1.47677 
Ar 19.2398 6.48779 -0.286245 
Ar 20.9416 11.9269 -1.29388 
Ar 22.4544 9.18491 -2.91603 
Ar 24.231 11.5583 0.16907 
Ar 26.8203 6.53943 3.04143 
Ar 28.4896 13.4014 -3.05496 
Ar 28.4247 9.11514 0.712438 
Ar 31.7852 11.9147 0.0112803 
Ar 2.16534 12.8076 0.377118 
Ar 1.92903 17.8581 1.31184 
Ar 3.477 15.6815 -1.70419 
Ar 5.49807 19.9873 2.36334 
Ar 5.60127 16.4799 1.30641 
Ar 8.60518 19.0355 0.78415 
Ar 12.9839 15.1151 0.747925 
Ar 11.7113 17.8666 -1.90124 
Ar 15.6824 12.9142 1.52976 
Ar 15.2321 19.5064 -1.41371 
Ar 19.8462 14.2382 1.10589 
Ar 19.51 17.0473 -1.3114 
Ar 22.9606 15.8938 -1.22338 
Ar 22.2453 18.8363 1.86524 
Ar 27.7899 15.7886 0.0724462 
Ar 26.1769 18.8207 0.095587 
Ar 27.7467 12.4795 1.56142 
Ar 30.1981 18.7317 -0.136917 
Ar -1.33786 21.9773 -1.96544 
Ar 0.535346 24.4686 0.885526 
Ar 3.35789 22.5702 0.382212 
Ar 6.00588 23.9055 2.67184 
Ar 7.57433 22.8442 -0.638792 
Ar 9.04807 25.371 1.71422 
Ar 11.7172 21.4997 0.238206 
Ar 11.0581 25.191 -1.21843 
Ar 14.4544 23.0415 -0.95237 
Ar 17.5815 23.8167 0.484367 
Ar 18.3487 20.7844 -2.41158 
Ar 18.1966 27.9694 0.473046 
Ar 21.5239 24.278 2.6075 
Ar 21.6768 26.6744 -0.412289 
Ar 24.6043 22.7629 0.0490673 
Ar 26.601 25.9133 0.284229 
Ar 27.8317 22.4827 0.903242 
Ar 29.5219 24.9947 -2.25016 
Ar 0.779178 0.993129 5.79428 
Ar 3.26075 4.15615 5.44714 
Ar 4.68839 0.993361 4.96052 
Ar 5.55236 6.54871 2.49768 
Ar 9.35988 5.95023 2.09372 
Ar 12.9075 5.77336 2.82391 
Ar 14.1953 2.65987 3.36209 
Ar 15.0423 4.53587 -0.193027 
Ar 16.804 -0.509218 3.7474 
Ar 17.7132 5.53129 2.86536 
Ar 20.5123 2.66431 6.06359 
Ar 21.1152 3.75833 1.48652 
Ar 24.3954 3.83879 5.34447 
Ar 25.525 6.92173 6.55239 
Ar 28.2754 3.14369 3.12393 
Ar 30.4043 6.62625 2.06578 
Ar 31.7668 3.87278 4.43537 
Ar 29.7951 6.72339 6.12964 
Ar 2.41587 6.53561 9.80363 
Ar 5.05684 10.28 3.97494 
Ar 7.75213 12.504 2.59336 
Ar 10.8199 11.9339 0.411109 
Ar 8.26716 8.7678 0.656851 
Ar 11.5467 12.7369 4.04663 
Ar 13.9059 10.1786 2.91286 
Ar 16.7386 10.5161 5.24317 
Ar 15.1308 6.99678 5.12769 
Ar 17.7144 14.2213 4.40985 
Ar 19.746 10.6543 1.9727 
Ar 25.1581 6.13568 -1.08203 
Ar 23.5007 9.04488 3.29318 
Ar 26.1745 13.1231 4.73991 
Ar 27.3736 9.61938 4.12946 
Ar 30.0729 13.2073 4.86944 
Ar 31.076 9.81292 3.61817 
Ar 33.4914 14.1337 3.86399 
Ar -0.959828 17.2706 5.91427 
Ar 1.09804 20.7171 5.33033 
Ar 4.6054 14.0066 3.56844 
Ar 7.35239 18.3054 4.9411 
Ar 9.41357 15.2764 1.65512 
Ar 11.3167 19.4921 3.17023 
Ar 14.3226 15.2659 4.44499 
Ar 14.6569 21.1945 3.04665 
Ar 16.869 16.5391 2.0261 
Ar 18.2054 20.4329 1.2274 
Ar 20.0962 16.9026 3.96393 
Ar 19.7899 20.3651 5.58952 
Ar 22.5334 12.7946 3.44558 
Ar 25.4183 20.5853 3.01866 
Ar 24.3991 15.5562 1.92815 
Ar 29.166 20.3605 3.36068 
Ar 31.1149 16.2669 2.59828 
Ar 32.288 21.0548 1.92509 
Ar 1.57565 24.0427 4.10264 
Ar 2.81218 27.6767 2.88045 
Ar 5.7007 21.9651 5.56691 
Ar 6.29542 25.5508 6.99143 
Ar 9.06524 23.0996 5.25734 
Ar 12.0263 28.1523 1.40705 
Ar 10.5367 26.2631 5.83094 
Ar 14.6364 26.556 -0.0378239 
Ar 16.1589 25.297 3.27424 
Ar 20.4088 27.8335 4.12797 
Ar 19.235 24.2155 5.20975 
Ar 23.2204 29.3691 2.04561 
Ar 24.6353 26.5322 3.88921 
Ar 26.6401 29.5898 5.64939 
Ar 27.1211 23.4849 4.47499 
Ar 29.2177 26.2026 5.58079 
Ar 30.0298 25.3326 1.35989 
Ar 32.6826 26.8707 3.14134 
Ar 4.82423 9.00906 10.9258 
Ar 6.20199 7.38306 6.08509 
Ar 7.1869 4.29457 4.59167 
Ar 10.8301 6.97234 5.62975 
Ar 11.3912 2.94181 5.5405 
Ar 13.1061 5.34134 7.71465 
Ar 16.81 3.4283 5.63156 
Ar 16.1185 8.17885 8.92713 
Ar 18.5179 2.84637 8.92035 
Ar 18.6098 6.23021 7.0912 
Ar 22.9869 0.475762 6.019 
Ar 20.6472 6.93729 4.49555 
Ar 25.0946 2.73471 8.95968 
Ar 28.6136 6.29438 9.44331 
Ar 28.5432 3.35637 6.92011 
Ar 31.979 8.21593 10.1078 
Ar 32.6255 5.12147 8.0866 
Ar 35.247 9.93765 8.61102 
Ar 6.78078 10.8287 7.80105 
Ar 7.45576 14.5231 5.62866 
Ar 9.33316 9.97059 4.72556 
Ar 10.0064 12.9859 7.76613 
Ar 12.8929 10.1466 6.47336 
Ar 13.1893 14.0316 7.85647 
Ar 17.5674 11.9966 8.49693 
Ar 16.3577 15.2016 8.62391 
Ar 20.5203 10.8584 5.54514 
Ar 19.956 14.5705 7.29806 
Ar 23.4717 13.0964 7.11101 
Ar 25.8353 16.129 7.83755 
Ar 26.3915 10.2368 7.65525 
Ar 27.5018 16.4638 3.58009 
Ar 30.3375 10.1063 7.13753 
Ar 30.8057 15.3848 9.69757 
Ar 33.8045 13.2812 7.99976 
Ar 37.2706 13.0179 6.91402 
Ar 3.77261 17.2777 5.27236 
Ar 4.77117 19.2994 8.26567 
Ar 8.08014 16.6188 8.8033 
Ar 8.08018 20.0639 7.81098 
Ar 10.8715 16.2771 5.12055 
Ar 12.2966 23.7281 3.81001 
Ar 13.5378 18.6634 6.13875 
Ar 15.4898 22.3071 6.21145 
Ar 17.2439 17.5626 6.0601 
Ar 20.8867 23.496 9.35354 
Ar 21.8473 19.7338 9.16009 
Ar 23.387 22.5725 6.71167 
Ar 23.1353 18.3283 6.0671 
Ar 27.3849 21.209 8.11093 
Ar 28.8353 17.6587 7.45605 
Ar 30.8986 23.5515 4.26032 
Ar 33.8878 18.983 8.74226 
Ar 35.0732 22.9655 8.12937 
Ar 4.0153 26.2837 10.8749 
Ar 5.31977 29.6993 9.65576 
Ar 8.84258 28.3784 10.3007 
Ar 8.88745 30.869 2.90148 
Ar 11.8801 21.6824 7.12321 
Ar 13.0066 28.8716 5.09755 
Ar 13.8014 26.0325 7.13826 
Ar 15.7535 30.1423 7.18072 
Ar 17.4345 25.1546 8.20358 
Ar 18.8912 28.5347 7.9948 
Ar 22.4467 26.3651 6.60822 
Ar 24.6069 28.7175 9.80913 
Ar 25.8688 26.3621 7.26772 
Ar 28.3525 28.7579 8.4784 
Ar 32.4482 26.5281 6.76007 
Ar 30.3284 29.7556 4.72384 
Ar 36.007 27.3176 7.46455 
Ar 35.2952 32.0229 8.87677 
