216
#
Ar 0.482961 -0.248853 -0.912505 
Ar 2.10954 3.038 1.31951 
Ar 3.93025 -0.937832 0.16133 
Ar 5.78794 2.27117 0.0951916 
Ar 7.95562 -0.266152 1.22604 
Ar 8.91394 2.27849 -1.41719 
Ar 11.8537 -1.87665 -2.20238 
Ar 12.5372 4.41116 -0.873543 
Ar 13.6495 0.301189 0.333874 
Ar 17.0397 4.40019 0.154495 
Ar 17.4048 0.083472 -0.0674556 
Ar 21.6492 4.80093 0.0179188 
Ar 21.3454 0.140517 0.544708 
Ar 24.6677 3.46536 1.06487 
Ar 26.4978 0.522984 0.0658048 
Ar 28.5876 3.48023 -0.0774196 
Ar 29.9138 0.171476 0.8339 
Ar 32.3024 3.04181 -0.991174 
Ar 0.15833 6.28076 1.12326 
Ar 1.55998 12.5941 0.147753 
Ar 3.99073 6.3463 0.979461 
Ar 5.21586 9.60773 0.996395 
Ar 6.94078 5.53525 -0.860895 
Ar 8.88866 11.8691 -0.191299 
Ar 9.52552 7.95226 -0.270794 
Ar 12.5499 11.8868 0.825958 
Ar 13.1324 8.07144 -1.20924 
Ar 16.1953 10.0135 -0.168886 
Ar 18.9421 7.64344 -0.102557 
Ar 19.6546 11.2013 -0.140976 
Ar 22.6569 8.45744 -0.893904 
Ar 22.926 12.3865 -1.2527 
Ar 25.9515 6.56471 0.203468 
Ar 27.1316 12.0107 -0.883391 
Ar 28.9147 8.69312 0.253887 
Ar 31.1535 11.995 -1.05478 
Ar -0.45524 15.4603 -0.133551 
Ar 1.30638 18.6598 -0.268103 
Ar 3.35278 15.6185 -0.778971 
Ar 5.27586 18.7068 0.416688 
Ar 7.55363 15.4643 -1.10113 
Ar 9.19961 19.0068 0.565402 
Ar 10.5805 15.0237 1.04713 
Ar 12.9055 17.8195 1.26199 
Ar 15.162 14.1132 0.477584 
Ar 16.4113 18.4413 -1.37605 
Ar 18.5225 15.747 -0.218053 
Ar 19.7044 18.9922 0.589675 
Ar 22.0164 15.4907 0.473662 
Ar 24.1372 19.2325 1.21517 
Ar 26.3283 15.7842 -0.156829 
Ar 26.6774 19.6371 -1.04245 
Ar 29.6289 14.677 1.1896 
Ar 29.8027 18.3171 0.949729 
Ar -0.96886 22.5161 -1.2295 
Ar 1.68191 25.8888 0.0046886 
Ar 2.5924 21.8439 -0.473764 
Ar 4.98811 24.5471 0.544081 
Ar 6.95588 21.6438 0.464603 
Ar 8.00209 25.4761 -0.488725 
Ar 10.6153 22.4978 1.14664 
Ar 13.2776 25.3266 0.901128 
Ar 14.0415 21.2091 -0.0870877 
Ar 16.4087 25.556 -0.0998789 
Ar 17.5955 21.917 -0.318131 
Ar 19.6999 26.3018 -0.914585 
Ar 21.884 22.8167 0.404827 
Ar 23.1994 26.3359 0.863729 
Ar 25.2027 23.2435 -0.757078 
Ar 27.444 26.0672 0.257587 
Ar 29.0701 22.8329 1.0373 
Ar 30.9344 26.0561 -0.673451 
Ar 1.63418 0.545786 4.27816 
Ar 3.85731 3.84266 4.89283 
Ar 5.36795 0.509673 4.16335 
Ar 6.9291 4.9474 3.73181 
Ar 9.63257 2.15412 3.66816 
Ar 10.7177 5.71102 3.60417 
Ar 13.2098 3.04398 3.50694 
Ar 14.4303 6.35695 2.49091 
Ar 16.6006 2.06168 3.24449 
Ar 18.4942 5.70722 4.34652 
Ar 20.4086 2.28392 3.46485 
Ar 22.7641 5.49076 3.53486 
Ar 24.0244 2.43131 4.5588 
Ar 26.0825 5.26548 4.48543 
Ar 28.0306 1.98143 3.67247 
Ar 29.6762 5.72875 2.34819 
Ar 31.6662 2.87459 2.65211 
Ar 31.1327 7.4631 5.39644 
Ar 1.34854 8.80703 3.9881 
Ar 3.20828 11.9018 4.01264 
Ar 5.96324 8.49828 4.13633 
Ar 7.72264 12.9152 2.76979 
Ar 9.67806 9.14667 3.99709 
Ar 10.9467 12.4981 4.18794 
Ar 13.5002 9.48982 3.42339 
Ar 14.9084 12.9824 3.99309 
Ar 17.2816 9.04765 3.70678 
Ar 18.2802 12.4014 3.76081 
Ar 20.8637 8.99262 2.90419 
Ar 21.651 12.7259 2.55174 
Ar 25.1536 10.709 2.47985 
Ar 27.0125 13.7775 3.11663 
Ar 28.164 8.88702 4.06371 
Ar 29.7641 12.3435 4.8895 
Ar 31.4663 10.241 2.2876 
Ar 32.6714 13.576 3.39453 
Ar 1.22085 16.7625 3.14562 
Ar 3.12855 20.0234 2.842 
Ar 4.83547 15.1847 2.81915 
Ar 6.50382 18.7753 3.92506 
Ar 8.64021 15.7789 4.26975 
Ar 10.2316 19.1402 4.27112 
Ar 12.358 15.7858 4.92299 
Ar 14.1022 20.5064 3.48057 
Ar 16.0911 16.5949 3.0213 
Ar 18.2559 20.9436 3.17048 
Ar 19.9655 16.2896 3.78189 
Ar 21.8023 19.9848 4.26397 
Ar 23.5766 15.776 4.74862 
Ar 25.8833 22.0331 2.53069 
Ar 26.5807 17.2416 2.99456 
Ar 28.7024 19.8996 4.50231 
Ar 30.465 16.6372 4.60159 
Ar 32.5004 20.8414 2.54879 
Ar 1.71364 23.5137 3.32696 
Ar 3.58525 26.8019 3.47888 
Ar 4.77912 22.9245 4.73317 
Ar 7.65002 25.9151 3.46833 
Ar 8.1397 22.595 3.61685 
Ar 11.0329 27.92 2.68133 
Ar 11.5506 25.1338 4.7798 
Ar 15.9582 27.6644 3.19541 
Ar 15.4671 23.7009 4.0695 
Ar 19.3388 26.9089 2.6984 
Ar 21.4933 23.8209 4.19442 
Ar 22.4488 28.2197 4.25273 
Ar 24.5359 24.9404 4.21469 
Ar 26.1012 28.4145 5.48172 
Ar 27.8065 23.8715 4.68645 
Ar 28.8292 27.2569 3.33271 
Ar 31.1739 24.6051 3.48559 
Ar 32.7196 27.5769 2.38706 
Ar 3.67456 4.17679 8.54885 
Ar 5.24879 7.31384 7.34361 
Ar 6.99088 2.71771 6.65147 
Ar 9.06527 6.57447 7.21657 
Ar 11.5767 3.13393 6.49115 
Ar 12.3655 7.41242 6.09712 
Ar 15.0044 5.26056 7.55319 
Ar 16.1753 8.63963 7.07966 
Ar 18.2217 3.76864 7.49187 
Ar 19.7915 7.1436 7.57114 
Ar 21.7782 2.09579 8.20815 
Ar 23.5104 6.57951 7.23694 
Ar 25.4843 3.1408 8.5792 
Ar 27.2343 6.6562 8.0546 
Ar 29.8048 3.3109 6.75051 
Ar 30.6846 6.43538 8.95618 
Ar 33.6937 2.73472 6.7118 
Ar 34.3767 7.8707 8.97718 
Ar 3.73458 10.9438 7.78778 
Ar 5.54157 14.06 6.60773 
Ar 7.55581 11.0399 6.80133 
Ar 9.84624 14.2308 7.3185 
Ar 10.659 9.91452 7.90756 
Ar 13.1156 15.6257 8.85375 
Ar 14.1843 11.6353 8.32865 
Ar 17.5309 15.2743 5.96881 
Ar 18.1165 11.9455 7.53356 
Ar 20.6305 15.2235 7.45463 
Ar 21.4199 10.7547 5.88186 
Ar 24.3497 14.958 7.99408 
Ar 25.2121 10.3797 6.75831 
Ar 27.8567 15.4572 7.56056 
Ar 29.3303 9.58229 7.42612 
Ar 31.1996 14.9723 7.59792 
Ar 32.9979 10.9239 6.85845 
Ar 34.6082 14.2969 6.51207 
Ar 3.76802 17.3671 6.60759 
Ar 5.52524 22.2988 8.19759 
Ar 7.21193 18.2982 7.77314 
Ar 8.72381 21.3289 6.78641 
Ar 10.5729 17.6834 7.75056 
Ar 12.744 21.1804 7.29204 
Ar 15.0566 18.0715 6.15571 
Ar 16.3674 21.3061 7.26956 
Ar 19.2738 18.5651 6.70041 
Ar 20.3784 21.6785 8.10939 
Ar 22.7813 18.7005 8.20534 
Ar 24.6685 21.7417 5.99148 
Ar 25.8776 18.3213 6.32151 
Ar 28.309 22.3443 7.94281 
Ar 29.9969 19.1958 7.77723 
Ar 31.6597 21.6833 6.1005 
Ar 33.4179 17.7128 7.57642 
Ar 35.2316 20.8262 6.43567 
Ar 4.63753 26.347 8.05225 
Ar 6.72139 29.2396 8.70096 
Ar 8.10128 25.5059 6.98228 
Ar 9.18062 28.8122 5.7452 
Ar 11.0609 24.1035 8.71866 
Ar 12.9654 29.2823 5.17212 
Ar 14.5974 24.5757 7.82684 
Ar 16.1348 30.2247 6.95052 
Ar 18.2615 24.8638 6.79644 
Ar 19.8485 28.5953 7.70661 
Ar 21.8094 24.8919 8.07283 
Ar 24.111 28.0314 8.41374 
Ar 25.9082 25.191 7.53508 
Ar 28.8125 29.8787 8.19746 
Ar 29.9491 25.5376 7.13815 
Ar 30.9004 29.5858 5.22948 
Ar 33.6082 26.4411 5.66454 
Ar 36.2881 29.7162 7.60596 
