216
#
Ar 0.210731 0.126149 -0.259519 
Ar 1.88933 3.06335 0.987224 
Ar 3.65219 -0.45091 0.68567 
Ar 5.44875 2.6797 0.124536 
Ar 8.02019 -0.627907 0.478709 
Ar 9.02525 3.23073 0.232286 
Ar 11.4879 -0.990831 -1.17798 
Ar 12.8347 4.15124 -0.0577623 
Ar 14.4723 -0.00211135 1.36209 
Ar 16.2805 4.36492 -0.201024 
Ar 17.9945 -0.314797 -0.270637 
Ar 21.0531 4.76676 0.364192 
Ar 21.8031 0.0820359 0.616262 
Ar 24.7465 3.59776 1.63694 
Ar 25.4897 0.429783 0.688073 
Ar 27.9791 3.90436 -0.999244 
Ar 29.5482 0.238747 0.209413 
Ar 31.6495 3.58053 -0.340843 
Ar -0.416534 6.83658 1.08328 
Ar 2.08593 11.6861 -0.32074 
Ar 3.44092 6.56754 0.510924 
Ar 5.38657 10.4443 -0.244903 
Ar 7.06729 6.1864 -0.561539 
Ar 8.44841 11.8898 -0.406941 
Ar 10.0776 8.161 0.658356 
Ar 12.6446 11.1758 -0.0513995 
Ar 14.1002 7.62402 -0.821148 
Ar 16.434 10.5482 -0.333388 
Ar 18.6941 7.59172 0.308041 
Ar 20.0814 12.0559 0.522872 
Ar 22.2858 8.51049 -0.386927 
Ar 23.8051 11.8451 -0.836461 
Ar 26.0792 6.79957 1.03555 
Ar 27.3513 11.7939 -0.422017 
Ar 29.1509 8.36928 -0.0366494 
Ar 31.2137 11.4753 -0.290406 
Ar -0.160755 15.1331 -0.249601 
Ar 1.60559 18.2713 -0.27911 
Ar 3.63128 14.9505 -0.650815 
Ar 6.01469 18.3426 0.483748 
Ar 7.37603 15.1676 -0.84124 
Ar 9.48466 17.9646 0.274057 
Ar 10.7671 14.4747 0.180104 
Ar 13.0776 17.2314 1.21267 
Ar 15.4752 13.7747 0.193828 
Ar 16.4356 18.1114 -0.774583 
Ar 18.4628 15.5239 -0.278674 
Ar 20.2336 18.8614 0.468044 
Ar 22.1713 15.1094 -0.368206 
Ar 23.8541 18.702 0.827132 
Ar 25.851 15.1101 -0.000503832 
Ar 26.6974 18.6252 -0.750818 
Ar 29.2708 14.7706 1.37828 
Ar 30.6037 18.0865 1.26629 
Ar -0.210696 22.5244 -1.07539 
Ar 1.77032 25.7453 -0.970211 
Ar 3.40986 21.8364 -0.358802 
Ar 5.47053 25.6053 0.851973 
Ar 7.07549 21.7723 0.00573899 
Ar 9.03484 25.3586 0.143863 
Ar 10.6151 21.5673 0.188121 
Ar 12.3685 25.3539 0.929342 
Ar 14.2092 20.7155 -0.320448 
Ar 16.1289 25.3722 -0.587123 
Ar 18.1127 21.8577 -0.218976 
Ar 20.4524 25.4867 -0.573175 
Ar 21.7936 22.2592 0.334836 
Ar 23.9644 26.2846 1.02768 
Ar 25.5854 23.0892 0.14914 
Ar 27.6275 26.1655 -0.135038 
Ar 29.2104 22.7694 0.469734 
Ar 31.1348 26.194 -0.617564 
Ar 2.03088 0.63454 3.96325 
Ar 3.40581 4.28334 4.18841 
Ar 6.0805 1.02052 3.73121 
Ar 6.84587 4.88501 3.52287 
Ar 9.57386 1.78356 3.41755 
Ar 10.2397 5.49416 2.9949 
Ar 13.1854 2.86421 3.35958 
Ar 14.8942 6.09565 2.86442 
Ar 17.0139 1.98797 3.01892 
Ar 18.6781 5.40287 3.62067 
Ar 20.8266 2.11976 3.26551 
Ar 22.4693 5.38252 3.72294 
Ar 24.1165 2.0703 4.82917 
Ar 26.3013 5.45035 4.23034 
Ar 27.7846 1.68211 3.35209 
Ar 29.3291 5.15457 1.935 
Ar 31.6131 2.16772 3.1714 
Ar 32.4026 6.71441 4.75127 
Ar 2.00122 9.13932 4.79635 
Ar 3.3016 12.7611 3.90948 
Ar 5.3773 9.1153 4.41444 
Ar 7.4121 13.0152 4.09015 
Ar 9.35569 9.18224 4.13866 
Ar 10.8196 13.0961 3.68166 
Ar 13.2243 9.80228 3.46429 
Ar 14.9993 13.1254 3.76727 
Ar 16.8121 9.40617 3.26997 
Ar 18.5088 12.8263 3.75262 
Ar 20.8346 9.24669 2.95997 
Ar 22.4029 12.3878 2.87741 
Ar 24.3278 9.45825 2.40486 
Ar 25.438 13.5032 4.17385 
Ar 27.9319 8.75621 3.75303 
Ar 28.8029 12.904 4.35348 
Ar 31.2794 9.52504 3.11466 
Ar 32.9746 13.3532 2.65553 
Ar 1.51771 16.796 3.91364 
Ar 3.25203 19.8297 2.80698 
Ar 5.02679 16.266 3.25813 
Ar 6.85304 19.7976 4.30808 
Ar 8.66062 16.0893 3.11143 
Ar 10.6573 19.7558 4.05212 
Ar 12.7157 16.1203 4.84422 
Ar 13.9849 20.0363 3.7401 
Ar 15.9728 17.3682 3.06876 
Ar 17.8436 20.4536 3.58536 
Ar 19.7378 16.8267 3.77981 
Ar 22.0651 19.6411 3.97756 
Ar 23.2165 16.2824 3.15945 
Ar 25.7757 20.5207 2.90314 
Ar 27.0406 17.2223 2.80493 
Ar 29.3822 20.2866 4.62561 
Ar 30.6409 16.1592 4.5333 
Ar 32.4901 20.5332 2.55125 
Ar 1.81541 23.6425 2.03416 
Ar 3.99792 26.8645 4.24603 
Ar 5.08927 23.0632 4.28049 
Ar 7.42762 26.8129 3.68726 
Ar 8.75799 23.3959 3.09149 
Ar 11.2023 28.1462 2.89734 
Ar 11.6655 24.0082 4.8295 
Ar 15.504 27.4063 4.38564 
Ar 15.3449 24.0476 3.07982 
Ar 18.9812 27.1882 4.08194 
Ar 20.5979 23.1375 4.0665 
Ar 22.4562 28.0455 4.5336 
Ar 24.3462 24.8959 4.34534 
Ar 25.8714 28.1791 5.23352 
Ar 27.6368 23.5715 4.09387 
Ar 28.844 27.0327 2.96055 
Ar 31.33 24.0799 3.33502 
Ar 32.5832 27.4799 2.90888 
Ar 3.53917 4.05736 8.18072 
Ar 5.14553 7.98032 7.92228 
Ar 7.03342 2.98749 6.62462 
Ar 8.95989 6.08566 7.12772 
Ar 10.893 2.97442 6.62972 
Ar 12.5784 6.75016 5.51747 
Ar 14.8635 4.38393 7.34452 
Ar 16.8984 8.81283 7.39665 
Ar 18.2793 3.57023 7.9461 
Ar 20.172 7.26628 7.15837 
Ar 21.9013 3.40047 8.10729 
Ar 23.868 6.42394 6.88924 
Ar 25.7451 3.17706 7.64132 
Ar 27.5131 6.65988 7.6366 
Ar 29.3964 4.0816 5.55591 
Ar 31.0132 6.67468 8.44979 
Ar 32.7668 3.54059 6.49449 
Ar 34.4161 7.07408 8.11012 
Ar 3.59767 11.3284 7.20453 
Ar 5.84405 14.8744 6.68504 
Ar 7.12748 11.4017 7.32133 
Ar 9.86047 13.9068 7.59224 
Ar 11.4535 10.7105 7.71929 
Ar 13.27 15.3593 8.60327 
Ar 14.7283 11.9511 7.1438 
Ar 16.4183 15.0083 6.56478 
Ar 18.2645 11.9942 7.9051 
Ar 20.4679 14.6667 7.47749 
Ar 21.8435 11.1408 7.07852 
Ar 24.12 14.9858 7.3613 
Ar 25.3208 9.9833 6.55209 
Ar 27.6786 15.3609 7.18958 
Ar 28.7688 10.6255 7.51215 
Ar 30.9889 14.3943 7.81125 
Ar 32.4218 11.4374 6.27596 
Ar 34.9776 14.5348 7.25817 
Ar 3.82473 17.7883 7.30296 
Ar 5.3908 22.7685 7.92084 
Ar 7.49698 18.2574 7.80172 
Ar 9.19267 21.5455 7.31822 
Ar 11.0589 18.023 7.9902 
Ar 13.2934 21.5554 7.01011 
Ar 14.7409 18.3171 7.25104 
Ar 16.9305 21.1987 7.12149 
Ar 18.5825 17.8301 7.15896 
Ar 20.5148 22.0327 7.84994 
Ar 21.9134 18.485 8.47398 
Ar 23.7672 22.0448 6.57462 
Ar 25.2594 18.5728 5.98731 
Ar 27.6932 22.3761 7.93979 
Ar 29.7828 18.2596 7.9427 
Ar 31.7198 22.059 6.45325 
Ar 33.0813 17.7687 6.93935 
Ar 35.1732 21.1777 7.08185 
Ar 3.79621 26.7518 7.42821 
Ar 6.1149 28.9884 8.20336 
Ar 7.84217 25.2816 7.0244 
Ar 9.2 28.7253 6.46121 
Ar 11.1853 24.4968 8.51241 
Ar 12.9934 29.1191 6.04436 
Ar 14.4639 24.7257 7.29218 
Ar 16.5989 29.8229 6.86501 
Ar 18.0469 24.7236 6.52207 
Ar 19.8327 28.3381 7.18169 
Ar 22.3488 25.4048 7.24753 
Ar 23.2696 29.3324 8.09971 
Ar 26.0718 25.8537 8.02535 
Ar 27.7526 29.583 7.7373 
Ar 29.343 26.4811 7.31868 
Ar 31.3167 29.2672 6.42033 
Ar 33.3198 26.2817 6.65102 
Ar 35.2461 29.9481 7.67948 
