216
#
Ar 0.559047 -0.245343 -1.3283 
Ar 2.33411 2.91913 1.33176 
Ar 4.10225 -1.15837 0.0925805 
Ar 5.77286 2.1971 0.141568 
Ar 7.91837 -0.573958 1.41045 
Ar 9.14724 2.33294 -1.43277 
Ar 11.9451 -1.85928 -2.39698 
Ar 12.4527 4.4337 -0.827368 
Ar 13.5111 0.446879 0.0711208 
Ar 17.093 4.24637 0.0700571 
Ar 17.3607 0.18845 -0.0118404 
Ar 21.4795 4.75484 -0.250509 
Ar 21.275 0.54519 0.416995 
Ar 24.4584 3.2911 1.16085 
Ar 26.3796 0.382033 -0.00580377 
Ar 28.4637 3.49539 0.145274 
Ar 30.1356 0.194724 0.522455 
Ar 32.0435 3.28763 -0.746571 
Ar 0.27716 6.19514 1.09918 
Ar 1.55588 12.5135 0.345893 
Ar 4.0709 6.20905 1.22589 
Ar 5.21757 9.76387 0.910802 
Ar 6.95787 5.25647 -1.09969 
Ar 8.97987 11.7798 -0.674781 
Ar 9.6697 7.7142 -0.241888 
Ar 12.2165 11.7979 1.04646 
Ar 13.2328 8.13286 -0.683193 
Ar 16.0969 9.95063 0.0500561 
Ar 19.082 7.65366 0.0323353 
Ar 19.7144 11.0217 -0.0690346 
Ar 22.7881 8.71524 -0.790832 
Ar 22.581 12.3435 -1.33852 
Ar 25.7338 6.70936 0.325256 
Ar 27.2003 12.2036 -1.3447 
Ar 28.9014 8.74606 0.318449 
Ar 31.1043 12.0513 -1.34727 
Ar -0.217067 15.6192 -0.253191 
Ar 1.08774 18.6185 -0.0148171 
Ar 3.18711 15.5621 -1.04751 
Ar 5.07178 18.6017 0.15296 
Ar 7.58948 15.3952 -0.810556 
Ar 9.15216 19.025 0.56516 
Ar 10.5399 15.3973 1.37075 
Ar 12.7878 18.1898 0.981465 
Ar 14.977 13.9252 0.424607 
Ar 16.1745 18.3213 -1.38977 
Ar 18.4394 15.513 -0.265034 
Ar 19.914 19.0645 0.293219 
Ar 22.0851 15.7419 0.473634 
Ar 23.909 19.254 1.3299 
Ar 26.572 16.0357 -0.179162 
Ar 26.4784 19.8043 -1.17917 
Ar 29.8095 14.588 1.31261 
Ar 29.8518 18.5281 0.914683 
Ar -1.26533 22.3456 -1.13146 
Ar 1.52231 25.4022 0.164317 
Ar 2.19882 21.8527 -0.469854 
Ar 5.07548 24.6448 0.878075 
Ar 6.98889 21.8233 0.492954 
Ar 8.26411 25.6702 -0.578422 
Ar 11.0065 22.5499 1.04758 
Ar 13.021 25.3327 1.29785 
Ar 14.0333 21.4628 -0.412327 
Ar 16.5234 26.0095 0.0360478 
Ar 17.6868 21.9191 -0.388003 
Ar 19.6863 26.254 -0.903889 
Ar 21.6941 22.756 0.363723 
Ar 22.8796 26.1658 0.64996 
Ar 25.1176 22.8678 -0.940523 
Ar 27.1145 26.0085 0.240159 
Ar 29.0252 22.6352 1.05788 
Ar 31.1114 26.0928 -0.224094 
Ar 1.61556 0.514836 4.20882 
Ar 4.16578 3.87985 4.76033 
Ar 5.38998 0.643464 4.48112 
Ar 7.21436 5.28874 3.77107 
Ar 9.6437 2.30644 3.6571 
Ar 10.8055 5.71933 3.49062 
Ar 13.2312 3.06941 3.2193 
Ar 14.373 6.19815 2.31249 
Ar 16.4176 1.84382 3.45586 
Ar 18.5445 5.49762 4.40276 
Ar 20.3293 2.26492 3.55406 
Ar 22.6641 5.60348 3.40158 
Ar 24.0828 2.23337 4.68071 
Ar 26.291 5.37848 4.53845 
Ar 28.1898 2.04459 3.52507 
Ar 29.4058 6.09886 2.5918 
Ar 31.8167 3.34593 2.81594 
Ar 31.2102 7.59254 5.39907 
Ar 1.23877 8.61021 3.82031 
Ar 3.16534 11.4567 4.0021 
Ar 6.02693 8.31358 4.0609 
Ar 7.72307 12.8381 2.62609 
Ar 9.69277 9.0912 4.07592 
Ar 11.1018 12.566 4.36236 
Ar 13.5806 9.66361 3.27319 
Ar 14.6371 12.9716 4.03338 
Ar 17.0789 9.05954 3.75429 
Ar 18.4333 12.6008 3.80422 
Ar 20.9399 9.12082 2.64281 
Ar 21.7981 12.7838 2.43947 
Ar 24.9838 10.6876 2.79348 
Ar 26.9964 13.6372 3.1706 
Ar 28.18 8.86592 3.85031 
Ar 29.741 12.3447 5.09225 
Ar 31.5538 10.1653 2.4564 
Ar 32.6485 13.8392 3.35591 
Ar 1.35194 16.92 3.50134 
Ar 3.10126 20.0671 2.91142 
Ar 4.58652 14.95 2.5597 
Ar 6.57006 19.0303 3.8944 
Ar 8.12744 15.9067 4.33042 
Ar 10.606 19.056 4.23258 
Ar 12.5807 15.9139 4.93208 
Ar 13.9961 20.4937 3.61491 
Ar 16.2878 16.6315 2.97315 
Ar 18.3377 20.9191 3.41589 
Ar 20.194 16.0199 3.59116 
Ar 21.9022 20.0248 4.59942 
Ar 23.7027 15.7794 4.75674 
Ar 25.847 22.2128 2.36053 
Ar 26.5277 17.439 3.03545 
Ar 28.6905 20.0746 4.42857 
Ar 30.3618 16.8326 4.17458 
Ar 32.1711 20.6434 2.28945 
Ar 1.46087 23.3636 3.47616 
Ar 3.59824 26.6803 3.46798 
Ar 4.66131 23.3506 4.84689 
Ar 7.29104 26.0393 3.37704 
Ar 8.2359 22.4246 3.85586 
Ar 11.1304 27.9475 2.28348 
Ar 11.474 25.2575 4.77571 
Ar 15.7787 27.6872 2.92712 
Ar 15.4754 23.9949 4.00102 
Ar 19.2959 27.0387 2.63946 
Ar 21.2886 23.604 4.32354 
Ar 22.506 28.1971 4.30063 
Ar 24.8456 25.4053 3.88442 
Ar 26.1562 28.5129 5.35329 
Ar 28.0397 23.7157 4.68627 
Ar 28.5034 26.9451 3.3442 
Ar 31.1053 24.5719 3.49284 
Ar 32.7695 27.6541 2.37323 
Ar 3.48039 3.98413 8.69432 
Ar 5.30163 7.2138 7.54422 
Ar 7.0291 2.84952 6.6915 
Ar 8.91213 6.58926 7.1301 
Ar 11.7518 3.43847 6.46345 
Ar 12.5463 7.32845 6.17669 
Ar 14.9879 5.09097 7.51896 
Ar 16.0781 8.74398 7.02094 
Ar 18.3683 3.79106 7.38673 
Ar 19.5969 7.16589 7.29666 
Ar 21.9521 2.04438 8.20309 
Ar 23.481 6.51943 7.33116 
Ar 25.8587 3.22837 8.76275 
Ar 27.3662 6.71045 7.79073 
Ar 29.9474 3.56669 7.01529 
Ar 30.9397 6.54972 9.23479 
Ar 33.6017 2.80123 6.70049 
Ar 34.3872 8.02959 9.125 
Ar 3.64724 10.7494 7.94652 
Ar 5.57012 13.9827 6.47298 
Ar 7.23714 10.9503 6.38634 
Ar 9.72785 13.6889 7.67485 
Ar 10.5649 10.2389 7.77945 
Ar 13.3112 15.7311 8.99467 
Ar 13.8886 11.5584 8.30257 
Ar 17.3482 15.3145 6.05436 
Ar 18.0204 11.6424 7.35173 
Ar 20.8511 15.2726 7.53186 
Ar 21.2465 10.7511 5.9724 
Ar 24.4916 14.9614 8.35315 
Ar 25.1296 10.4747 6.9425 
Ar 27.8924 15.334 7.52826 
Ar 29.3776 9.54999 7.66554 
Ar 31.4018 14.7981 7.26626 
Ar 33.2635 10.4712 7.12941 
Ar 34.6635 14.344 6.46012 
Ar 3.80075 17.1542 6.26548 
Ar 5.2436 22.2343 8.27142 
Ar 6.85199 18.2208 7.97669 
Ar 9.34951 21.3004 6.98342 
Ar 10.6023 17.7487 7.67629 
Ar 12.7357 21.0765 7.04653 
Ar 15.0856 17.9043 6.23605 
Ar 16.4869 21.4653 7.30074 
Ar 19.0973 18.4388 6.36946 
Ar 20.3949 21.7581 8.20007 
Ar 22.7278 18.6816 8.24631 
Ar 24.7284 21.9985 6.21311 
Ar 26.314 18.2043 6.38603 
Ar 28.4848 22.4257 7.95789 
Ar 29.8793 19.1135 7.94951 
Ar 31.5332 21.8168 5.94142 
Ar 33.3716 17.759 7.33764 
Ar 35.047 20.762 6.58955 
Ar 4.66702 26.0784 8.11477 
Ar 6.88768 28.8111 8.56367 
Ar 8.14487 25.3827 6.82458 
Ar 8.88956 28.8442 5.60902 
Ar 10.8152 24.0449 8.79476 
Ar 13.0408 29.1558 4.98182 
Ar 14.4191 24.7374 8.22436 
Ar 16.1602 30.3531 7.07715 
Ar 18.1814 25.0396 7.16435 
Ar 19.7065 28.6097 7.40864 
Ar 22.3113 24.8775 7.86144 
Ar 24.0871 27.8714 8.95392 
Ar 26.2402 25.189 7.37199 
Ar 28.9074 29.3261 8.11055 
Ar 30.1424 25.3783 7.14186 
Ar 31.0637 29.3526 5.23179 
Ar 33.8486 26.5072 5.69876 
Ar 36.4521 29.9508 7.41355 
