216
#
Ar -1.10864 1.14805 -2.13573 
Ar 1.2518 1.32921 1.84055 
Ar 2.01561 -0.690724 -0.97452 
Ar 5.21496 2.41112 1.68478 
Ar 7.24708 -2.10866 1.68182 
Ar 9.8433 1.14891 -0.815572 
Ar 8.83395 0.449831 -4.01966 
Ar 13.0351 3.52239 -0.671053 
Ar 12.9508 0.368554 -2.35023 
Ar 18.6468 4.04657 0.357994 
Ar 16.0715 1.46897 -0.201483 
Ar 22.3106 4.92115 -1.2501 
Ar 21.2528 1.47789 0.42187 
Ar 24.4646 3.32242 0.917473 
Ar 26.5742 0.353885 1.8486 
Ar 28.7305 2.51629 0.0195632 
Ar 30.7573 -0.45259 1.36163 
Ar 31.5936 4.3829 0.020448 
Ar 0.505465 7.41676 4.21325 
Ar 1.80293 10.8844 1.99546 
Ar 2.1303 4.85867 1.7074 
Ar 4.69982 12.2427 0.259794 
Ar 6.99022 3.225 -1.81921 
Ar 8.21291 8.18174 -2.30859 
Ar 10.2837 5.61055 -0.84617 
Ar 11.6052 11.2263 -0.314133 
Ar 12.9157 7.43496 0.0864813 
Ar 17.1801 10.9074 2.951 
Ar 19.768 7.35461 -0.119935 
Ar 20.0099 10.6534 -0.75943 
Ar 22.4391 8.46586 -2.53907 
Ar 24.7083 11.6009 -0.192049 
Ar 25.2021 6.12858 2.76934 
Ar 28.0145 13.185 -2.66254 
Ar 27.474 9.58925 0.191794 
Ar 30.9251 11.6058 -0.44829 
Ar 1.40698 13.6935 -0.49564 
Ar 0.552268 17.7091 0.833308 
Ar 3.72117 16.1391 -0.455364 
Ar 4.4073 18.6452 2.34234 
Ar 6.43504 15.4359 1.57081 
Ar 7.77845 19.0366 1.33388 
Ar 11.5381 14.9537 0.344125 
Ar 11.6634 18.7912 -0.31688 
Ar 14.6481 14.068 2.12952 
Ar 15.9884 18.8646 -0.674951 
Ar 18.0356 14.7238 0.41361 
Ar 19.5387 17.9122 -1.12402 
Ar 22.0821 14.492 0.0523706 
Ar 23.041 18.4497 0.699589 
Ar 29.2935 15.6633 -0.220932 
Ar 26.1049 19.4324 -0.976492 
Ar 28.4702 12.699 1.85154 
Ar 30.1175 19.5216 -0.528883 
Ar -1.35838 21.9561 -2.32343 
Ar 0.589577 25.122 0.0382388 
Ar 2.6266 22.1629 0.0180874 
Ar 5.02932 23.365 2.84149 
Ar 7.05374 22.2364 -0.0629027 
Ar 9.68209 24.8609 2.26135 
Ar 10.4023 21.8653 0.385173 
Ar 12.4284 24.7105 -0.246213 
Ar 14.6753 22.3024 -1.70883 
Ar 18.401 24.5487 -0.300055 
Ar 18.2585 21.2022 -2.14171 
Ar 18.8954 28.2559 -1.3786 
Ar 21.1861 22.2103 0.964305 
Ar 21.8769 26.0002 0.520069 
Ar 24.8314 22.904 -1.26712 
Ar 27.4618 25.8659 1.01164 
Ar 28.1539 22.1979 0.381523 
Ar 30.2197 25.9536 -1.59737 
Ar 1.6085 1.8513 6.28178 
Ar 4.48281 4.56685 4.29413 
Ar 5.64589 0.0473681 5.06712 
Ar 7.2408 5.93489 2.48012 
Ar 10.3623 3.62148 2.70329 
Ar 12.6411 5.93364 3.76147 
Ar 13.7767 2.81499 2.78671 
Ar 15.7819 5.87192 1.3268 
Ar 16.7344 1.38303 3.12768 
Ar 18.5662 6.37489 3.77267 
Ar 20.6635 1.9727 4.5611 
Ar 21.7503 4.88393 2.75006 
Ar 24.5431 3.09971 4.78358 
Ar 26.7774 6.24495 6.20308 
Ar 28.2111 3.08729 3.70529 
Ar 28.725 6.32177 2.18088 
Ar 31.9443 4.45261 3.64688 
Ar 30.3611 6.76901 6.17872 
Ar 2.79834 6.74375 6.9068 
Ar 2.98147 10.8092 5.47534 
Ar 4.05857 8.06038 2.18066 
Ar 8.87292 12.8526 1.38125 
Ar 10.0003 8.7826 1.43877 
Ar 11.0594 12.6108 4.66079 
Ar 13.5903 9.94374 2.76187 
Ar 14.5877 12.6759 5.62464 
Ar 15.5671 8.96423 5.67761 
Ar 18.1757 14.2415 4.35886 
Ar 20.7201 9.70123 3.07958 
Ar 23.2368 8.44329 0.890486 
Ar 23.6592 8.88465 5.00082 
Ar 25.5778 12.01 4.78718 
Ar 27.4457 9.08975 4.31554 
Ar 30.2463 12.5309 5.04477 
Ar 31.0778 8.8821 2.01657 
Ar 31.6762 14.0437 2.05675 
Ar 0.664257 16.6086 4.89171 
Ar 1.66294 20.1905 4.19044 
Ar 2.8317 15.0945 2.70044 
Ar 7.00984 18.1651 4.88474 
Ar 9.7468 16.136 3.69633 
Ar 10.7734 19.8434 3.73272 
Ar 13.5837 16.8614 4.81855 
Ar 15.0524 20.9122 2.16143 
Ar 16.8856 17.0837 2.6393 
Ar 18.7285 21.5688 3.16516 
Ar 20.5565 17.616 3.22915 
Ar 21.8907 20.5862 4.99752 
Ar 21.5582 13.2833 3.66365 
Ar 24.7644 21.7229 2.20566 
Ar 25.8257 15.8219 1.24457 
Ar 28.0128 19.4692 4.00153 
Ar 30.6594 17.2424 2.99327 
Ar 32.3416 21.496 1.34966 
Ar 1.22728 23.793 3.25643 
Ar 3.77299 27.0872 2.11604 
Ar 4.45487 21.3876 5.8905 
Ar 5.91036 26.0721 6.0294 
Ar 8.0601 22.9333 4.7911 
Ar 12.0456 28.1307 0.75273 
Ar 10.5365 26.5956 5.66239 
Ar 15.4841 27.1364 0.854691 
Ar 17.1055 24.5706 3.34576 
Ar 18.7558 27.2757 2.27466 
Ar 21.0781 24.5777 4.72383 
Ar 22.7434 28.8879 3.01456 
Ar 24.3105 25.8116 3.36466 
Ar 25.8466 29.1338 5.68103 
Ar 27.5845 23.934 3.96703 
Ar 28.644 27.5486 4.15059 
Ar 31.016 24.7722 2.5519 
Ar 33.6669 27.5629 2.94676 
Ar 5.19311 5.99882 10.3862 
Ar 6.19587 7.73989 5.54989 
Ar 7.94169 3.01263 5.12591 
Ar 9.62118 6.36933 5.6532 
Ar 10.9 3.43589 7.31556 
Ar 13.0491 6.37414 7.73086 
Ar 14.8468 3.10167 6.45341 
Ar 16.2525 8.59224 9.74695 
Ar 18.8448 2.96794 7.5561 
Ar 18.7903 7.97455 7.00216 
Ar 22.6135 1.25797 7.40695 
Ar 21.8558 5.99655 6.34085 
Ar 25.292 3.51221 8.24154 
Ar 28.9907 6.6097 9.26743 
Ar 29.0367 2.83992 7.31218 
Ar 32.2955 8.9561 9.08492 
Ar 32.9057 4.71638 7.65272 
Ar 35.6428 9.80204 9.07784 
Ar 6.42382 11.0804 7.65519 
Ar 7.33716 13.9343 5.54044 
Ar 8.68396 10.0889 4.43922 
Ar 8.94403 12.9607 8.70908 
Ar 12.3004 10.29 7.24625 
Ar 12.9408 14.6969 8.11678 
Ar 16.4367 12.1791 9.63996 
Ar 16.0741 15.6163 7.23537 
Ar 18.8286 11.498 6.38997 
Ar 19.8441 14.5126 7.99927 
Ar 22.3647 11.9637 7.22729 
Ar 24.4293 14.7589 7.1342 
Ar 25.8585 9.51097 7.79996 
Ar 27.9784 15.3817 5.32761 
Ar 29.2284 10.0638 7.22358 
Ar 32.0965 15.2741 8.09959 
Ar 33.0809 11.7649 7.33985 
Ar 36.6389 14.1302 7.44219 
Ar 3.92566 17.4863 5.9498 
Ar 4.71214 19.5844 9.27486 
Ar 6.47084 16.2085 8.4209 
Ar 8.28946 20.2119 7.62365 
Ar 9.82545 17.011 7.4849 
Ar 13.1717 24.5261 3.47758 
Ar 13.8751 18.9364 7.59312 
Ar 15.5963 21.5695 5.74074 
Ar 18.2909 18.5119 6.13079 
Ar 21.1791 23.8966 8.2345 
Ar 22.7479 18.4851 8.06344 
Ar 24.6308 22.9534 6.08978 
Ar 24.5452 18.0752 4.2969 
Ar 28.058 21.9399 7.39064 
Ar 30.5625 18.8522 7.01425 
Ar 31.0468 21.5608 4.87693 
Ar 34.4876 20.1471 7.8807 
Ar 35.0628 24.2119 7.76963 
Ar 4.49116 25.5674 10.2223 
Ar 5.96216 28.9208 9.79377 
Ar 9.02792 26.1095 9.51762 
Ar 9.43217 29.4509 3.09522 
Ar 10.8338 23.2703 8.04648 
Ar 13.1097 28.9238 4.92893 
Ar 13.8845 26.2097 7.2664 
Ar 16.3595 29.001 7.35415 
Ar 17.5776 25.2263 7.01117 
Ar 19.9683 28.0418 5.78091 
Ar 23.3516 26.8519 7.38198 
Ar 24.1672 28.5593 10.3303 
Ar 26.7842 25.3212 7.83472 
Ar 28.0275 28.5744 9.01503 
Ar 32.1054 25.9869 6.13116 
Ar 31.4765 30.2699 4.65159 
Ar 35.3009 27.6158 6.14739 
Ar 35.4703 32.5032 9.69536 
