216
#
Ar -0.82557 1.12472 -2.35737 
Ar 1.34432 0.951482 2.50702 
Ar 1.78365 -0.968369 -0.908454 
Ar 4.63769 1.80719 1.67884 
Ar 6.73917 -0.704728 2.87932 
Ar 8.33828 1.50243 0.366702 
Ar 8.37854 0.525425 -3.80366 
Ar 12.617 2.89219 -1.11116 
Ar 12.5878 -0.649547 -1.87044 
Ar 18.5187 2.02423 1.57426 
Ar 15.021 0.860571 0.324848 
Ar 21.4323 3.68996 -3.25977 
Ar 21.5427 1.12246 -0.621381 
Ar 24.5887 2.20539 1.49476 
Ar 27.549 -0.126464 1.66542 
Ar 28.4664 2.90948 -0.490408 
Ar 31.1961 0.131819 0.971695 
Ar 32.4704 3.61425 0.390845 
Ar 0.583968 7.87193 4.67259 
Ar 1.84312 9.66814 1.46247 
Ar 2.78057 6.01214 1.21528 
Ar 5.64716 12.8926 -0.530784 
Ar 6.10149 4.08408 -1.67833 
Ar 9.46946 9.73772 -1.92214 
Ar 9.19853 5.33263 -2.13222 
Ar 12.5805 11.1579 -0.429662 
Ar 12.0415 7.52529 -0.228632 
Ar 17.2474 9.64069 1.49881 
Ar 19.8673 6.96608 -0.0131338 
Ar 20.5386 11.3894 -1.18115 
Ar 22.2941 8.69589 -3.42664 
Ar 23.6279 11.8503 1.58755 
Ar 26.9462 6.61995 2.26203 
Ar 28.3123 13.5596 -3.15243 
Ar 28.1849 9.49919 0.4502 
Ar 31.6984 12.3037 -0.699574 
Ar 2.30078 13.4829 -0.596563 
Ar 0.721882 18.1012 0.989144 
Ar 2.18735 16.6469 -1.99177 
Ar 4.38094 19.0168 2.27439 
Ar 6.31437 16.2126 1.49042 
Ar 7.90883 20.2 0.98247 
Ar 12.2039 15.2938 0.514787 
Ar 11.4896 18.3164 -1.01459 
Ar 14.8077 13.2444 1.77056 
Ar 15.9343 19.5348 -1.22482 
Ar 18.7443 14.005 0.978629 
Ar 19.198 17.9257 -1.28092 
Ar 21.8861 15.4205 0.10865 
Ar 22.4286 19.9639 0.15776 
Ar 28.4939 16.0052 -0.526673 
Ar 26.5497 19.261 -0.412622 
Ar 27.4345 12.5333 1.56412 
Ar 30.358 18.9739 -1.05442 
Ar -1.78951 22.6739 -1.54724 
Ar 0.958891 24.7758 0.369314 
Ar 3.01405 21.9846 0.983006 
Ar 5.98484 24.5964 2.59764 
Ar 8.81533 23.63 -0.387798 
Ar 9.31618 25.9066 2.49645 
Ar 11.1897 21.569 0.926879 
Ar 11.7326 25.0187 -1.54612 
Ar 14.8195 22.8886 -1.89814 
Ar 17.6594 23.4248 0.486309 
Ar 18.6042 21.395 -2.8535 
Ar 18.5342 28.0578 -0.223008 
Ar 21.4887 24.2594 1.73455 
Ar 21.8274 26.5642 -1.50971 
Ar 25.1213 23.0338 -1.01853 
Ar 26.9979 25.5176 0.557176 
Ar 28.2789 22.1714 0.865784 
Ar 29.8592 25.8373 -2.09545 
Ar 1.31905 0.989825 6.06402 
Ar 3.82104 4.36098 5.72803 
Ar 4.79651 1.08801 5.57887 
Ar 6.15687 5.21289 1.85287 
Ar 9.47846 4.6598 2.62632 
Ar 13.3342 6.39668 3.04273 
Ar 12.5434 2.55849 2.56566 
Ar 16.1001 4.98469 0.580511 
Ar 16.386 0.220741 3.74865 
Ar 18.4773 6.90096 3.5254 
Ar 19.5227 2.77369 4.76606 
Ar 21.6692 4.03816 1.64578 
Ar 24.1215 3.62786 4.83076 
Ar 26.278 6.32517 6.77613 
Ar 27.6402 2.98264 3.2919 
Ar 30.7216 6.63247 1.30748 
Ar 31.4779 3.13265 3.59716 
Ar 29.8716 6.09556 5.02046 
Ar 3.00292 6.53733 8.91634 
Ar 3.3296 10.443 4.96874 
Ar 6.12414 10.576 2.6265 
Ar 9.26757 12.977 1.29629 
Ar 8.89538 8.55818 1.28827 
Ar 11.1687 13.4475 4.65734 
Ar 12.9792 10.671 3.09326 
Ar 16.1281 11.2133 4.7396 
Ar 15.8338 7.70958 5.90542 
Ar 17.7504 15.0278 4.58079 
Ar 20.792 9.75258 2.45584 
Ar 24.0121 7.75362 0.216947 
Ar 24.1139 9.32845 4.13269 
Ar 25.7126 12.4926 4.99492 
Ar 28.1665 9.41335 5.24227 
Ar 29.7564 12.4935 4.55405 
Ar 31.3114 10.1345 2.44875 
Ar 32.9352 13.2743 2.92204 
Ar -0.77086 15.9643 5.63583 
Ar -0.0651179 19.7344 4.71472 
Ar 3.99635 13.7521 3.67592 
Ar 7.08339 18.5145 4.83159 
Ar 9.59219 16.914 2.50214 
Ar 10.8455 19.7837 4.29296 
Ar 13.8927 15.5212 4.30711 
Ar 14.6021 21.4203 1.33162 
Ar 16.9008 17.4701 2.47345 
Ar 18.6105 20.8809 3.17492 
Ar 20.3422 16.9982 3.19079 
Ar 22.0496 20.4392 4.30278 
Ar 21.6583 13.7249 4.315 
Ar 24.6601 21.7678 2.62538 
Ar 25.2302 15.209 1.27762 
Ar 27.4425 19.8921 4.22107 
Ar 30.2608 17.227 2.69249 
Ar 32.2518 21.5478 1.79803 
Ar 1.89491 23.733 3.62177 
Ar 3.42631 27.3527 2.70957 
Ar 4.61887 21.0216 6.36824 
Ar 6.47813 26.1353 6.11739 
Ar 7.57828 22.0264 3.86482 
Ar 11.9818 28.223 1.61638 
Ar 10.2726 26.5518 5.92749 
Ar 15.1674 26.4645 0.244265 
Ar 16.6725 25.5982 4.03241 
Ar 19.5479 27.6828 3.36288 
Ar 20.0973 23.3854 5.14257 
Ar 22.9852 28.9465 3.18812 
Ar 24.8673 25.5738 3.27078 
Ar 26.053 29.6831 5.6953 
Ar 27.2753 23.31 4.43358 
Ar 28.4685 26.4393 4.54911 
Ar 30.3618 24.7787 1.73505 
Ar 32.9404 27.1261 3.23147 
Ar 5.44285 8.6514 10.315 
Ar 5.79767 7.31768 6.78102 
Ar 7.32618 3.93877 5.72563 
Ar 10.1303 7.50365 5.642 
Ar 11.0137 3.11182 6.23711 
Ar 13.0112 5.99808 7.45728 
Ar 14.7074 2.24132 6.03614 
Ar 15.9817 8.93902 9.26309 
Ar 18.1131 2.99619 9.42124 
Ar 18.5514 6.29306 7.63492 
Ar 22.7906 0.315022 6.94738 
Ar 21.9601 6.3205 4.53991 
Ar 25.2272 2.88355 8.26819 
Ar 29.3634 6.04496 9.00838 
Ar 28.9759 3.1541 7.05908 
Ar 32.7135 8.01567 9.53879 
Ar 32.8643 4.59534 7.7463 
Ar 35.4791 10.1141 8.71112 
Ar 6.22159 10.8325 7.58369 
Ar 7.17486 14.8931 5.06996 
Ar 9.16167 10.7311 5.1846 
Ar 9.31712 12.9881 8.01829 
Ar 12.6017 9.94826 6.96196 
Ar 12.525 13.8623 8.27713 
Ar 16.426 12.5194 9.67512 
Ar 16.6592 16.1096 8.04549 
Ar 19.9967 10.8367 6.06672 
Ar 20.0172 14.7851 7.31071 
Ar 23.388 12.5967 7.86366 
Ar 25.6725 16.2818 8.0281 
Ar 26.2377 10.5272 8.11575 
Ar 27.208 15.7297 4.49683 
Ar 30.4663 10.3524 7.73788 
Ar 31.9408 15.8405 9.23376 
Ar 33.3593 12.6437 7.1992 
Ar 37.3631 14.2106 7.1816 
Ar 2.79035 17.4767 5.47307 
Ar 5.03307 19.3598 9.4766 
Ar 7.52184 15.9467 9.09984 
Ar 8.65391 20.34 8.20682 
Ar 10.1975 16.7223 6.98086 
Ar 12.7835 24.912 2.76672 
Ar 14.541 18.6041 6.67159 
Ar 16.1245 21.9657 5.43097 
Ar 19.716 18.4539 6.26036 
Ar 21.6334 22.7702 9.41359 
Ar 22.6835 19.1385 7.78347 
Ar 24.5074 22.1497 6.06943 
Ar 24.3812 17.7742 4.54312 
Ar 27.8591 21.6899 8.23278 
Ar 29.0171 17.2594 7.22046 
Ar 30.5694 22.7149 4.86016 
Ar 33.2624 19.6282 8.35008 
Ar 34.5589 22.9252 7.61425 
Ar 4.48321 25.5838 10.3739 
Ar 5.04002 29.5656 9.30643 
Ar 8.23703 27.3958 10.4107 
Ar 9.72403 30.2829 3.85392 
Ar 12.1565 21.9769 6.81458 
Ar 12.9618 28.9686 4.97232 
Ar 14.379 25.1767 6.51904 
Ar 15.7078 28.4734 7.97152 
Ar 18.0207 24.9531 7.95861 
Ar 19.2099 28.2524 7.16195 
Ar 22.655 26.0922 6.23866 
Ar 24.932 29.0066 9.8629 
Ar 26.2611 25.5966 7.73419 
Ar 28.7213 29.1349 8.39761 
Ar 32.6791 25.4051 6.45245 
Ar 30.2318 29.629 5.08515 
Ar 35.8045 26.7178 6.66627 
Ar 35.6985 32.1837 9.74038 
